monoMOF-ligands.sdf
     RDKit          2D

 12 12  0  0  0  0  0  0  0  0999 V2000
   -0.4126   -0.7144    0.0000 C   0  0  0  0  0  0  0  0  0  0  0  0
    0.4118   -0.7144    0.0000 C   0  0  0  0  0  0  0  0  0  0  0  0
    0.8244    0.0000    0.0000 C   0  0  0  0  0  0  0  0  0  0  0  0
    0.4118    0.7144    0.0000 C   0  0  0  0  0  0  0  0  0  0  0  0
   -0.4126    0.7144    0.0000 C   0  0  0  0  0  0  0  0  0  0  0  0
   -0.8252    0.0000    0.0000 C   0  0  0  0  0  0  0  0  0  0  0  0
    1.6497    0.0000    0.0000 C   0  0  0  0  0  0  0  0  0  0  0  0
   -1.6497    0.0000    0.0000 C   0  0  0  0  0  0  0  0  0  0  0  0
   -2.0623   -0.7144    0.0000 O   0  0  0  0  0  0  0  0  0  0  0  0
   -2.0623    0.7144    0.0000 O   0  0  0  0  0  0  0  0  0  0  0  0
    2.0623    0.7144    0.0000 O   0  0  0  0  0  0  0  0  0  0  0  0
    2.0623   -0.7144    0.0000 O   0  0  0  0  0  0  0  0  0  0  0  0
  1  2  2  0
  2  3  1  0
  3  4  2  0
  4  5  1  0
  5  6  2  0
  6  1  1  0
  3  7  1  0
  6  8  1  0
  8  9  1  0
  8 10  2  0
  7 11  1  0
  7 12  2  0
M  END
>  <Name>  (1) 
L-1

$$$$
monoMOF-ligands.sdf
     RDKit          2D

 11 11  0  0  0  0  0  0  0  0999 V2000
   -0.6683   -0.1427    0.0000 C   0  0  0  0  0  0  0  0  0  0  0  0
    1.4495    0.1197    0.0000 C   0  0  0  0  0  0  0  0  0  0  0  0
   -1.4541    0.1090    0.0000 C   0  0  0  0  0  0  0  0  0  0  0  0
   -2.0648   -0.4451    0.0000 O   0  0  0  0  0  0  0  0  0  0  0  0
   -1.6283    0.9154    0.0000 O   0  0  0  0  0  0  0  0  0  0  0  0
    1.6182    0.9269    0.0000 O   0  0  0  0  0  0  0  0  0  0  0  0
    2.0648   -0.4304    0.0000 O   0  0  0  0  0  0  0  0  0  0  0  0
   -0.4112   -0.9269    0.0000 C   0  0  0  0  0  0  0  0  0  0  0  0
    0.4135   -0.9238    0.0000 C   0  0  0  0  0  0  0  0  0  0  0  0
    0.6661   -0.1381    0.0000 C   0  0  0  0  0  0  0  0  0  0  0  0
   -0.0031    0.3445    0.0000 O   0  0  0  0  0  0  0  0  0  0  0  0
  1  3  1  0
  3  4  1  0
  3  5  2  0
  2  6  1  0
  2  7  2  0
  1  8  2  0
  8  9  1  0
  9 10  2  0
 10 11  1  0
 11  1  1  0
  2 10  1  0
M  END
>  <Name>  (2) 
L-2

$$$$
monoMOF-ligands.sdf
     RDKit          2D

 14 18  0  2  0  0  0  0  0  0999 V2000
   -0.7035   -0.7039    0.0000 C   0  0  0  0  0  0  0  0  0  0  0  0
   -0.7035    0.1211    0.0000 C   0  0  0  0  0  0  0  0  0  0  0  0
   -0.1207    0.7039    0.0000 C   0  0  0  0  0  0  0  0  0  0  0  0
    0.7043    0.7039    0.0000 C   0  0  0  0  0  0  0  0  0  0  0  0
    0.1207    0.1211    0.0000 C   0  0  0  0  0  0  0  0  0  0  0  0
    0.1207   -0.7039    0.0000 C   0  0  0  0  0  0  0  0  0  0  0  0
   -0.1207   -0.1211    0.0000 C   0  0  0  0  0  0  0  0  0  0  0  0
    0.7043   -0.1211    0.0000 C   0  0  0  0  0  0  0  0  0  0  0  0
    1.5293    0.7039    0.0000 C   0  0  0  0  0  0  0  0  0  0  0  0
    1.9395    1.4151    0.0000 O   0  0  0  0  0  0  0  0  0  0  0  0
    1.9395   -0.0073    0.0000 O   0  0  0  0  0  0  0  0  0  0  0  0
   -1.5285   -0.7039    0.0000 C   0  0  0  0  0  0  0  0  0  0  0  0
   -1.9395   -1.4151    0.0000 O   0  0  0  0  0  0  0  0  0  0  0  0
   -1.9395    0.0073    0.0000 O   0  0  0  0  0  0  0  0  0  0  0  0
  9 10  2  0
  9 11  1  0
  4  9  1  0
 12 13  2  0
 12 14  1  0
  1 12  1  0
  1  2  1  0
  2  3  1  0
  3  4  1  0
  4  5  1  0
  5  6  1  0
  1  6  1  0
  2  5  1  0
  3  7  1  0
  1  7  1  0
  4  8  1  0
  8  6  1  0
  7  8  1  0
M  STY  2   1 SUP   2 SUP
M  SLB  2   1   1   2   2
M  SAL   1  3   9  10  11
M  SBL   1  1   3
M  SMT   1 COOH
M  SBV   1   3   -0.8250    0.0000
M  SAL   2  3  12  13  14
M  SBL   2  1   6
M  SMT   2 COOH
M  SBV   2   6    0.8250    0.0000
M  END
>  <Name>  (3) 
L-3

$$$$
monoMOF-ligands.sdf
     RDKit          2D

 18 19  0  0  0  0  0  0  0  0999 V2000
   -1.6501   -0.7144    0.0000 C   0  0  0  0  0  0  0  0  0  0  0  0
   -0.8256   -0.7144    0.0000 C   0  0  0  0  0  0  0  0  0  0  0  0
   -0.4130    0.0000    0.0000 C   0  0  0  0  0  0  0  0  0  0  0  0
   -0.8256    0.7144    0.0000 C   0  0  0  0  0  0  0  0  0  0  0  0
   -1.6501    0.7144    0.0000 C   0  0  0  0  0  0  0  0  0  0  0  0
   -2.0627    0.0000    0.0000 C   0  0  0  0  0  0  0  0  0  0  0  0
    0.4122    0.0000    0.0000 C   0  0  0  0  0  0  0  0  0  0  0  0
   -2.8872    0.0000    0.0000 C   0  0  0  0  0  0  0  0  0  0  0  0
    0.8248   -0.7144    0.0000 C   0  0  0  0  0  0  0  0  0  0  0  0
    1.6501   -0.7144    0.0000 C   0  0  0  0  0  0  0  0  0  0  0  0
    2.0627    0.0000    0.0000 C   0  0  0  0  0  0  0  0  0  0  0  0
    1.6501    0.7144    0.0000 C   0  0  0  0  0  0  0  0  0  0  0  0
    0.8248    0.7144    0.0000 C   0  0  0  0  0  0  0  0  0  0  0  0
    2.8872    0.0000    0.0000 C   0  0  0  0  0  0  0  0  0  0  0  0
    3.2998    0.7144    0.0000 O   0  0  0  0  0  0  0  0  0  0  0  0
    3.2998   -0.7144    0.0000 O   0  0  0  0  0  0  0  0  0  0  0  0
   -3.2998   -0.7144    0.0000 O   0  0  0  0  0  0  0  0  0  0  0  0
   -3.2998    0.7144    0.0000 O   0  0  0  0  0  0  0  0  0  0  0  0
  1  2  2  0
  2  3  1  0
  3  4  2  0
  4  5  1  0
  5  6  2  0
  6  1  1  0
  3  7  1  0
  6  8  1  0
  7  9  2  0
  9 10  1  0
 10 11  2  0
 11 12  1  0
 12 13  2  0
 13  7  1  0
 11 14  1  0
 14 15  1  0
 14 16  2  0
  8 17  1  0
  8 18  2  0
M  END
>  <Name>  (4) 
L-4

$$$$
monoMOF-ligands.sdf
     RDKit          2D

 18 19  0  0  0  0  0  0  0  0999 V2000
   -1.6504   -0.7146    0.0000 C   0  0  0  0  0  0  0  0  0  0  0  0
   -0.8254   -0.7146    0.0000 C   0  0  0  0  0  0  0  0  0  0  0  0
   -0.4129    0.0004    0.0000 C   0  0  0  0  0  0  0  0  0  0  0  0
   -0.8254    0.7146    0.0000 N   0  0  0  0  0  0  0  0  0  0  0  0
   -1.6504    0.7146    0.0000 C   0  0  0  0  0  0  0  0  0  0  0  0
   -2.0614    0.0004    0.0000 C   0  0  0  0  0  0  0  0  0  0  0  0
    0.4121    0.0004    0.0000 C   0  0  0  0  0  0  0  0  0  0  0  0
   -2.8864    0.0004    0.0000 C   0  0  0  0  0  0  0  0  0  0  0  0
    0.8246   -0.7146    0.0000 C   0  0  0  0  0  0  0  0  0  0  0  0
    1.6496   -0.7146    0.0000 C   0  0  0  0  0  0  0  0  0  0  0  0
    2.0621    0.0004    0.0000 C   0  0  0  0  0  0  0  0  0  0  0  0
    1.6496    0.7146    0.0000 C   0  0  0  0  0  0  0  0  0  0  0  0
    0.8246    0.7146    0.0000 N   0  0  0  0  0  0  0  0  0  0  0  0
    2.8864    0.0004    0.0000 C   0  0  0  0  0  0  0  0  0  0  0  0
    3.2989    0.7146    0.0000 O   0  0  0  0  0  0  0  0  0  0  0  0
    3.2989   -0.7146    0.0000 O   0  0  0  0  0  0  0  0  0  0  0  0
   -3.2989   -0.7146    0.0000 O   0  0  0  0  0  0  0  0  0  0  0  0
   -3.2989    0.7146    0.0000 O   0  0  0  0  0  0  0  0  0  0  0  0
  1  2  2  0
  2  3  1  0
  3  4  2  0
  4  5  1  0
  5  6  2  0
  6  1  1  0
  3  7  1  0
  6  8  1  0
  7  9  2  0
  9 10  1  0
 10 11  2  0
 11 12  1  0
 12 13  2  0
 13  7  1  0
 11 14  1  0
 14 15  1  0
 14 16  2  0
  8 17  1  0
  8 18  2  0
M  END
>  <Name>  (5) 
L-5

$$$$
monoMOF-ligands.sdf
     RDKit          2D

 20 21  0  0  0  0  0  0  0  0999 V2000
   -1.6501   -0.7144    0.0000 C   0  0  0  0  0  0  0  0  0  0  0  0
   -0.8256   -0.7144    0.0000 C   0  0  0  0  0  0  0  0  0  0  0  0
   -0.4130    0.0000    0.0000 C   0  0  0  0  0  0  0  0  0  0  0  0
   -0.8256    0.7144    0.0000 C   0  0  0  0  0  0  0  0  0  0  0  0
   -1.6501    0.7144    0.0000 C   0  0  0  0  0  0  0  0  0  0  0  0
   -2.0627    0.0000    0.0000 C   0  0  0  0  0  0  0  0  0  0  0  0
    0.4122    0.0000    0.0000 C   0  0  0  0  0  0  0  0  0  0  0  0
   -2.8872    0.0000    0.0000 C   0  0  0  0  0  0  0  0  0  0  0  0
    0.8248   -0.7144    0.0000 C   0  0  0  0  0  0  0  0  0  0  0  0
    1.6501   -0.7144    0.0000 C   0  0  0  0  0  0  0  0  0  0  0  0
    2.0627    0.0000    0.0000 C   0  0  0  0  0  0  0  0  0  0  0  0
    1.6501    0.7144    0.0000 C   0  0  0  0  0  0  0  0  0  0  0  0
    0.8248    0.7144    0.0000 C   0  0  0  0  0  0  0  0  0  0  0  0
    2.8872    0.0000    0.0000 C   0  0  0  0  0  0  0  0  0  0  0  0
    3.2998    0.7144    0.0000 O   0  0  0  0  0  0  0  0  0  0  0  0
    3.2998   -0.7144    0.0000 O   0  0  0  0  0  0  0  0  0  0  0  0
   -3.2998   -0.7144    0.0000 O   0  0  0  0  0  0  0  0  0  0  0  0
   -3.2998    0.7144    0.0000 O   0  0  0  0  0  0  0  0  0  0  0  0
   -0.4130    1.4289    0.0000 C   0  0  0  0  0  0  0  0  0  0  0  0
    0.4122   -1.4289    0.0000 C   0  0  0  0  0  0  0  0  0  0  0  0
  1  2  2  0
  2  3  1  0
  3  4  2  0
  4  5  1  0
  5  6  2  0
  6  1  1  0
  3  7  1  0
  6  8  1  0
  7  9  2  0
  9 10  1  0
 10 11  2  0
 11 12  1  0
 12 13  2  0
 13  7  1  0
 11 14  1  0
 14 15  1  0
 14 16  2  0
  8 17  1  0
  8 18  2  0
  4 19  1  0
  9 20  1  0
M  END
>  <Name>  (6) 
L-6

$$$$
monoMOF-ligands.sdf
     RDKit          2D

 26 27  0  2  0  0  0  0  0  0999 V2000
   -1.6501   -0.7148    0.0000 C   0  0  0  0  0  0  0  0  0  0  0  0
   -0.8256   -0.7148    0.0000 C   0  0  0  0  0  0  0  0  0  0  0  0
   -0.4130   -0.0004    0.0000 C   0  0  0  0  0  0  0  0  0  0  0  0
   -0.8256    0.7141    0.0000 C   0  0  0  0  0  0  0  0  0  0  0  0
   -1.6501    0.7141    0.0000 C   0  0  0  0  0  0  0  0  0  0  0  0
   -2.0627   -0.0004    0.0000 C   0  0  0  0  0  0  0  0  0  0  0  0
    0.4122   -0.0004    0.0000 C   0  0  0  0  0  0  0  0  0  0  0  0
   -2.8872   -0.0004    0.0000 C   0  0  0  0  0  0  0  0  0  0  0  0
    0.8248   -0.7148    0.0000 C   0  0  0  0  0  0  0  0  0  0  0  0
    1.6501   -0.7148    0.0000 C   0  0  0  0  0  0  0  0  0  0  0  0
    2.0627   -0.0004    0.0000 C   0  0  0  0  0  0  0  0  0  0  0  0
    1.6501    0.7141    0.0000 C   0  0  0  0  0  0  0  0  0  0  0  0
    0.8248    0.7141    0.0000 C   0  0  0  0  0  0  0  0  0  0  0  0
    2.8872   -0.0004    0.0000 C   0  0  0  0  0  0  0  0  0  0  0  0
    3.2998    0.7141    0.0000 O   0  0  0  0  0  0  0  0  0  0  0  0
    3.2998   -0.7148    0.0000 O   0  0  0  0  0  0  0  0  0  0  0  0
   -3.2998   -0.7148    0.0000 O   0  0  0  0  0  0  0  0  0  0  0  0
   -3.2998    0.7141    0.0000 O   0  0  0  0  0  0  0  0  0  0  0  0
   -0.4130    1.4285    0.0000 C   0  0  0  0  0  0  0  0  0  0  0  0
    0.2984    1.0174    0.0000 F   0  0  0  0  0  0  0  0  0  0  0  0
   -0.0019    2.1399    0.0000 F   0  0  0  0  0  0  0  0  0  0  0  0
   -1.1244    1.8396    0.0000 F   0  0  0  0  0  0  0  0  0  0  0  0
    0.4122   -1.4293    0.0000 C   0  0  0  0  0  0  0  0  0  0  0  0
   -0.2992   -1.0182    0.0000 F   0  0  0  0  0  0  0  0  0  0  0  0
    0.0011   -2.1399    0.0000 F   0  0  0  0  0  0  0  0  0  0  0  0
    1.1236   -1.8396    0.0000 F   0  0  0  0  0  0  0  0  0  0  0  0
 19 20  1  0
 19 21  1  0
 19 22  1  0
  4 19  1  0
 23 24  1  0
 23 25  1  0
 23 26  1  0
  9 23  1  0
  1  2  2  0
  2  3  1  0
  3  4  2  0
  4  5  1  0
  5  6  2  0
  6  1  1  0
  3  7  1  0
  6  8  1  0
  7  9  2  0
  9 10  1  0
 10 11  2  0
 11 12  1  0
 12 13  2  0
 13  7  1  0
 11 14  1  0
 14 15  1  0
 14 16  2  0
  8 17  1  0
  8 18  2  0
M  STY  2   1 SUP   2 SUP
M  SLB  2   1   1   2   2
M  SAL   1  4  19  20  21  22
M  SBL   1  1   4
M  SMT   1 CF3
M  SBV   1   4   -0.4126   -0.7144
M  SAL   2  4  23  24  25  26
M  SBL   2  1   8
M  SMT   2 CF3
M  SBV   2   8    0.4126    0.7145
M  END
>  <Name>  (7) 
L-7

$$$$
monoMOF-ligands.sdf
     RDKit          2D

 20 21  0  0  0  0  0  0  0  0999 V2000
   -1.6501   -0.7141    0.0000 C   0  0  0  0  0  0  0  0  0  0  0  0
   -0.8256   -0.7141    0.0000 C   0  0  0  0  0  0  0  0  0  0  0  0
   -0.4130   -0.0004    0.0000 C   0  0  0  0  0  0  0  0  0  0  0  0
   -0.8256    0.7141    0.0000 C   0  0  0  0  0  0  0  0  0  0  0  0
   -1.6501    0.7141    0.0000 C   0  0  0  0  0  0  0  0  0  0  0  0
   -2.0627   -0.0004    0.0000 C   0  0  0  0  0  0  0  0  0  0  0  0
    0.4122   -0.0004    0.0000 C   0  0  0  0  0  0  0  0  0  0  0  0
   -2.8872   -0.0004    0.0000 C   0  0  0  0  0  0  0  0  0  0  0  0
    0.8248   -0.7141    0.0000 C   0  0  0  0  0  0  0  0  0  0  0  0
    1.6501   -0.7141    0.0000 C   0  0  0  0  0  0  0  0  0  0  0  0
    2.0627   -0.0004    0.0000 C   0  0  0  0  0  0  0  0  0  0  0  0
    1.6501    0.7141    0.0000 C   0  0  0  0  0  0  0  0  0  0  0  0
    0.8248    0.7141    0.0000 C   0  0  0  0  0  0  0  0  0  0  0  0
    2.8872   -0.0004    0.0000 C   0  0  0  0  0  0  0  0  0  0  0  0
    3.2998    0.7141    0.0000 O   0  0  0  0  0  0  0  0  0  0  0  0
    3.2998   -0.7141    0.0000 O   0  0  0  0  0  0  0  0  0  0  0  0
   -3.2998   -0.7141    0.0000 O   0  0  0  0  0  0  0  0  0  0  0  0
   -3.2998    0.7141    0.0000 O   0  0  0  0  0  0  0  0  0  0  0  0
   -0.4130    1.4285    0.0000 N   0  0  0  0  0  0  0  0  0  0  0  0
    0.4122   -1.4285    0.0000 N   0  0  0  0  0  0  0  0  0  0  0  0
  1  2  2  0
  2  3  1  0
  3  4  2  0
  4  5  1  0
  5  6  2  0
  6  1  1  0
  3  7  1  0
  6  8  1  0
  7  9  2  0
  9 10  1  0
 10 11  2  0
 11 12  1  0
 12 13  2  0
 13  7  1  0
 11 14  1  0
 14 15  1  0
 14 16  2  0
  8 17  1  0
  8 18  2  0
  4 19  1  0
  9 20  1  0
M  END
>  <Name>  (8) 
L-8

$$$$
monoMOF-ligands.sdf
     RDKit          2D

 20 21  0  0  0  0  0  0  0  0999 V2000
   -1.6501   -0.7144    0.0000 C   0  0  0  0  0  0  0  0  0  0  0  0
   -0.8256   -0.7144    0.0000 C   0  0  0  0  0  0  0  0  0  0  0  0
   -0.4130    0.0000    0.0000 C   0  0  0  0  0  0  0  0  0  0  0  0
   -0.8256    0.7144    0.0000 C   0  0  0  0  0  0  0  0  0  0  0  0
   -1.6501    0.7144    0.0000 C   0  0  0  0  0  0  0  0  0  0  0  0
   -2.0627    0.0000    0.0000 C   0  0  0  0  0  0  0  0  0  0  0  0
    0.4122    0.0000    0.0000 C   0  0  0  0  0  0  0  0  0  0  0  0
   -2.8872    0.0000    0.0000 C   0  0  0  0  0  0  0  0  0  0  0  0
    0.8248   -0.7144    0.0000 C   0  0  0  0  0  0  0  0  0  0  0  0
    1.6501   -0.7144    0.0000 C   0  0  0  0  0  0  0  0  0  0  0  0
    2.0627    0.0000    0.0000 C   0  0  0  0  0  0  0  0  0  0  0  0
    1.6501    0.7144    0.0000 C   0  0  0  0  0  0  0  0  0  0  0  0
    0.8248    0.7144    0.0000 C   0  0  0  0  0  0  0  0  0  0  0  0
    2.8872    0.0000    0.0000 C   0  0  0  0  0  0  0  0  0  0  0  0
    3.2998    0.7144    0.0000 O   0  0  0  0  0  0  0  0  0  0  0  0
    3.2998   -0.7144    0.0000 O   0  0  0  0  0  0  0  0  0  0  0  0
   -3.2998   -0.7144    0.0000 O   0  0  0  0  0  0  0  0  0  0  0  0
   -3.2998    0.7144    0.0000 O   0  0  0  0  0  0  0  0  0  0  0  0
   -0.4130    1.4289    0.0000 O   0  0  0  0  0  0  0  0  0  0  0  0
    0.4122   -1.4289    0.0000 O   0  0  0  0  0  0  0  0  0  0  0  0
  1  2  2  0
  2  3  1  0
  3  4  2  0
  4  5  1  0
  5  6  2  0
  6  1  1  0
  3  7  1  0
  6  8  1  0
  7  9  2  0
  9 10  1  0
 10 11  2  0
 11 12  1  0
 12 13  2  0
 13  7  1  0
 11 14  1  0
 14 15  1  0
 14 16  2  0
  8 17  1  0
  8 18  2  0
  4 19  1  0
  9 20  1  0
M  END
>  <Name>  (9) 
L-9

$$$$
monoMOF-ligands.sdf
     RDKit          2D

 20 21  0  0  0  0  0  0  0  0999 V2000
   -1.6501   -0.7144    0.0000 C   0  0  0  0  0  0  0  0  0  0  0  0
   -0.8256   -0.7144    0.0000 C   0  0  0  0  0  0  0  0  0  0  0  0
   -0.4130    0.0000    0.0000 C   0  0  0  0  0  0  0  0  0  0  0  0
   -0.8256    0.7144    0.0000 C   0  0  0  0  0  0  0  0  0  0  0  0
   -1.6501    0.7144    0.0000 C   0  0  0  0  0  0  0  0  0  0  0  0
   -2.0627    0.0000    0.0000 C   0  0  0  0  0  0  0  0  0  0  0  0
    0.4122    0.0000    0.0000 C   0  0  0  0  0  0  0  0  0  0  0  0
   -2.8872    0.0000    0.0000 C   0  0  0  0  0  0  0  0  0  0  0  0
    0.8248   -0.7144    0.0000 C   0  0  0  0  0  0  0  0  0  0  0  0
    1.6501   -0.7144    0.0000 C   0  0  0  0  0  0  0  0  0  0  0  0
    2.0627    0.0000    0.0000 C   0  0  0  0  0  0  0  0  0  0  0  0
    1.6501    0.7144    0.0000 C   0  0  0  0  0  0  0  0  0  0  0  0
    0.8248    0.7144    0.0000 C   0  0  0  0  0  0  0  0  0  0  0  0
    2.8872    0.0000    0.0000 C   0  0  0  0  0  0  0  0  0  0  0  0
    3.2998    0.7144    0.0000 O   0  0  0  0  0  0  0  0  0  0  0  0
    3.2998   -0.7144    0.0000 O   0  0  0  0  0  0  0  0  0  0  0  0
   -3.2998   -0.7144    0.0000 O   0  0  0  0  0  0  0  0  0  0  0  0
   -3.2998    0.7144    0.0000 O   0  0  0  0  0  0  0  0  0  0  0  0
    2.0627   -1.4289    0.0000 O   0  0  0  0  0  0  0  0  0  0  0  0
   -2.0627    1.4289    0.0000 O   0  0  0  0  0  0  0  0  0  0  0  0
  1  2  2  0
  2  3  1  0
  3  4  2  0
  4  5  1  0
  5  6  2  0
  6  1  1  0
  3  7  1  0
  6  8  1  0
  7  9  2  0
  9 10  1  0
 10 11  2  0
 11 12  1  0
 12 13  2  0
 13  7  1  0
 11 14  1  0
 14 15  1  0
 14 16  2  0
  8 17  1  0
  8 18  2  0
 10 19  1  0
  5 20  1  0
M  END
>  <Name>  (10) 
L-10

$$$$
monoMOF-ligands.sdf
     RDKit          2D

 20 21  0  0  0  0  0  0  0  0999 V2000
   -1.6501   -0.7144    0.0000 C   0  0  0  0  0  0  0  0  0  0  0  0
   -0.8256   -0.7144    0.0000 C   0  0  0  0  0  0  0  0  0  0  0  0
   -0.4130    0.0000    0.0000 C   0  0  0  0  0  0  0  0  0  0  0  0
   -0.8256    0.7144    0.0000 C   0  0  0  0  0  0  0  0  0  0  0  0
   -1.6501    0.7144    0.0000 C   0  0  0  0  0  0  0  0  0  0  0  0
   -2.0627    0.0000    0.0000 C   0  0  0  0  0  0  0  0  0  0  0  0
    0.4122    0.0000    0.0000 C   0  0  0  0  0  0  0  0  0  0  0  0
   -2.8872    0.0000    0.0000 C   0  0  0  0  0  0  0  0  0  0  0  0
    0.8248   -0.7144    0.0000 C   0  0  0  0  0  0  0  0  0  0  0  0
    1.6501   -0.7144    0.0000 C   0  0  0  0  0  0  0  0  0  0  0  0
    2.0627    0.0000    0.0000 C   0  0  0  0  0  0  0  0  0  0  0  0
    1.6501    0.7144    0.0000 C   0  0  0  0  0  0  0  0  0  0  0  0
    0.8248    0.7144    0.0000 C   0  0  0  0  0  0  0  0  0  0  0  0
    2.8872    0.0000    0.0000 C   0  0  0  0  0  0  0  0  0  0  0  0
    3.2998    0.7144    0.0000 O   0  0  0  0  0  0  0  0  0  0  0  0
    3.2998   -0.7144    0.0000 O   0  0  0  0  0  0  0  0  0  0  0  0
   -3.2998   -0.7144    0.0000 O   0  0  0  0  0  0  0  0  0  0  0  0
   -3.2998    0.7144    0.0000 O   0  0  0  0  0  0  0  0  0  0  0  0
    2.0627   -1.4289    0.0000 S   0  0  0  0  0  0  0  0  0  0  0  0
   -2.0627    1.4289    0.0000 S   0  0  0  0  0  0  0  0  0  0  0  0
  1  2  2  0
  2  3  1  0
  3  4  2  0
  4  5  1  0
  5  6  2  0
  6  1  1  0
  3  7  1  0
  6  8  1  0
  7  9  2  0
  9 10  1  0
 10 11  2  0
 11 12  1  0
 12 13  2  0
 13  7  1  0
 11 14  1  0
 14 15  1  0
 14 16  2  0
  8 17  1  0
  8 18  2  0
 10 19  1  0
  5 20  1  0
M  END
>  <Name>  (11) 
L-11

$$$$
monoMOF-ligands.sdf
     RDKit          2D

 22 23  0  0  0  0  0  0  0  0999 V2000
   -1.6501   -0.7141    0.0000 C   0  0  0  0  0  0  0  0  0  0  0  0
   -0.8256   -0.7141    0.0000 C   0  0  0  0  0  0  0  0  0  0  0  0
   -0.4130    0.0004    0.0000 C   0  0  0  0  0  0  0  0  0  0  0  0
   -0.8256    0.7141    0.0000 C   0  0  0  0  0  0  0  0  0  0  0  0
   -1.6501    0.7141    0.0000 C   0  0  0  0  0  0  0  0  0  0  0  0
   -2.0627    0.0004    0.0000 C   0  0  0  0  0  0  0  0  0  0  0  0
    0.4122    0.0004    0.0000 C   0  0  0  0  0  0  0  0  0  0  0  0
   -2.8872    0.0004    0.0000 C   0  0  0  0  0  0  0  0  0  0  0  0
    0.8248   -0.7141    0.0000 C   0  0  0  0  0  0  0  0  0  0  0  0
    1.6501   -0.7141    0.0000 C   0  0  0  0  0  0  0  0  0  0  0  0
    2.0627    0.0004    0.0000 C   0  0  0  0  0  0  0  0  0  0  0  0
    1.6501    0.7141    0.0000 C   0  0  0  0  0  0  0  0  0  0  0  0
    0.8248    0.7141    0.0000 C   0  0  0  0  0  0  0  0  0  0  0  0
    2.8872    0.0004    0.0000 C   0  0  0  0  0  0  0  0  0  0  0  0
    3.2998    0.7141    0.0000 O   0  0  0  0  0  0  0  0  0  0  0  0
    3.2998   -0.7141    0.0000 O   0  0  0  0  0  0  0  0  0  0  0  0
   -3.2998   -0.7141    0.0000 O   0  0  0  0  0  0  0  0  0  0  0  0
   -3.2998    0.7141    0.0000 O   0  0  0  0  0  0  0  0  0  0  0  0
    2.0627   -1.4285    0.0000 F   0  0  0  0  0  0  0  0  0  0  0  0
   -2.0627    1.4285    0.0000 F   0  0  0  0  0  0  0  0  0  0  0  0
   -2.0627   -1.4293    0.0000 F   0  0  0  0  0  0  0  0  0  0  0  0
    2.0627    1.4293    0.0000 F   0  0  0  0  0  0  0  0  0  0  0  0
  1  2  2  0
  2  3  1  0
  3  4  2  0
  4  5  1  0
  5  6  2  0
  6  1  1  0
  3  7  1  0
  6  8  1  0
  7  9  2  0
  9 10  1  0
 10 11  2  0
 11 12  1  0
 12 13  2  0
 13  7  1  0
 11 14  1  0
 14 15  1  0
 14 16  2  0
  8 17  1  0
  8 18  2  0
 10 19  1  0
  5 20  1  0
  1 21  1  0
 12 22  1  0
M  END
>  <Name>  (12) 
L-12

$$$$
monoMOF-ligands.sdf
     RDKit          2D

 26 29  0  0  0  0  0  0  0  0999 V2000
    2.0627    0.7137    0.0000 C   0  0  0  0  0  0  0  0  0  0  0  0
    1.6501    1.4289    0.0000 C   0  0  0  0  0  0  0  0  0  0  0  0
    0.8248    1.4289    0.0000 C   0  0  0  0  0  0  0  0  0  0  0  0
    0.4122    0.7137    0.0000 C   0  0  0  0  0  0  0  0  0  0  0  0
   -0.4137    0.7129    0.0000 C   0  0  0  0  0  0  0  0  0  0  0  0
   -0.8256    1.4273    0.0000 C   0  0  0  0  0  0  0  0  0  0  0  0
   -1.6501    1.4273    0.0000 C   0  0  0  0  0  0  0  0  0  0  0  0
   -2.0627    0.7129    0.0000 C   0  0  0  0  0  0  0  0  0  0  0  0
   -3.2998   -1.4289    0.0000 O   0  0  0  0  0  0  0  0  0  0  0  0
   -3.2998   -0.0008    0.0000 O   0  0  0  0  0  0  0  0  0  0  0  0
    3.2998   -0.0008    0.0000 O   0  0  0  0  0  0  0  0  0  0  0  0
    3.2998   -1.4289    0.0000 O   0  0  0  0  0  0  0  0  0  0  0  0
    2.8872   -0.7152    0.0000 C   0  0  0  0  0  0  0  0  0  0  0  0
    0.8248   -1.4289    0.0000 C   0  0  0  0  0  0  0  0  0  0  0  0
    1.6501   -1.4289    0.0000 C   0  0  0  0  0  0  0  0  0  0  0  0
    2.0627   -0.7152    0.0000 C   0  0  0  0  0  0  0  0  0  0  0  0
    1.6501   -0.0008    0.0000 C   0  0  0  0  0  0  0  0  0  0  0  0
    0.8248   -0.0008    0.0000 C   0  0  0  0  0  0  0  0  0  0  0  0
   -2.8872   -0.7152    0.0000 C   0  0  0  0  0  0  0  0  0  0  0  0
    0.4122   -0.7152    0.0000 C   0  0  0  0  0  0  0  0  0  0  0  0
   -2.0627   -0.7152    0.0000 C   0  0  0  0  0  0  0  0  0  0  0  0
   -1.6501   -1.4289    0.0000 C   0  0  0  0  0  0  0  0  0  0  0  0
   -0.8256   -1.4289    0.0000 C   0  0  0  0  0  0  0  0  0  0  0  0
   -0.4130   -0.7152    0.0000 C   0  0  0  0  0  0  0  0  0  0  0  0
   -0.8256   -0.0008    0.0000 C   0  0  0  0  0  0  0  0  0  0  0  0
   -1.6501   -0.0008    0.0000 C   0  0  0  0  0  0  0  0  0  0  0  0
  1 17  2  0
  2  1  1  0
  3  2  2  0
  4  3  1  0
 18  4  2  0
  5 25  2  0
  6  5  1  0
  7  6  2  0
  8  7  1  0
 26  8  2  0
 19  9  2  0
 19 10  1  0
 13 11  2  0
 13 12  1  0
 16 13  1  0
 14 20  2  0
 15 14  1  0
 16 15  2  0
 18 17  1  0
 20 18  1  0
 21 19  1  0
 24 20  1  0
 21 26  1  0
 22 21  2  0
 23 22  1  0
 24 23  2  0
 25 24  1  0
 26 25  1  0
 16 17  1  0
M  END
>  <Name>  (13) 
L-13

$$$$
monoMOF-ligands.sdf
     RDKit          2D

 20 21  0  0  0  0  0  0  0  0999 V2000
   -1.6500    0.3572    0.0000 C   0  0  0  0  0  0  0  0  0  0  0  0
   -0.8250    0.3572    0.0000 C   0  0  0  0  0  0  0  0  0  0  0  0
   -0.4121   -0.3572    0.0000 C   0  0  0  0  0  0  0  0  0  0  0  0
   -0.8250   -1.0717    0.0000 C   0  0  0  0  0  0  0  0  0  0  0  0
   -1.6500   -1.0717    0.0000 C   0  0  0  0  0  0  0  0  0  0  0  0
   -2.0621   -0.3572    0.0000 C   0  0  0  0  0  0  0  0  0  0  0  0
   -2.8871   -0.3572    0.0000 C   0  0  0  0  0  0  0  0  0  0  0  0
   -3.2999   -1.0717    0.0000 O   0  0  0  0  0  0  0  0  0  0  0  0
   -3.2999    0.3572    0.0000 O   0  0  0  0  0  0  0  0  0  0  0  0
   -0.4121    1.0717    0.0000 N   0  0  0  0  0  0  0  0  0  0  0  0
    0.4129    1.0717    0.0000 N   0  0  0  0  0  0  0  0  0  0  0  0
    0.8250    0.3572    0.0000 C   0  0  0  0  0  0  0  0  0  0  0  0
    1.6500    0.3572    0.0000 C   0  0  0  0  0  0  0  0  0  0  0  0
    2.0628   -0.3572    0.0000 C   0  0  0  0  0  0  0  0  0  0  0  0
    1.6500   -1.0717    0.0000 C   0  0  0  0  0  0  0  0  0  0  0  0
    0.8250   -1.0717    0.0000 C   0  0  0  0  0  0  0  0  0  0  0  0
    0.4129   -0.3572    0.0000 C   0  0  0  0  0  0  0  0  0  0  0  0
    2.8878   -0.3572    0.0000 C   0  0  0  0  0  0  0  0  0  0  0  0
    3.2999    0.3572    0.0000 O   0  0  0  0  0  0  0  0  0  0  0  0
    3.2999   -1.0717    0.0000 O   0  0  0  0  0  0  0  0  0  0  0  0
  1  2  2  0
  2  3  1  0
  3  4  2  0
  4  5  1  0
  5  6  2  0
  6  1  1  0
  6  7  1  0
  7  8  1  0
  7  9  2  0
  2 10  1  0
 10 11  2  0
 11 12  1  0
 12 13  2  0
 13 14  1  0
 14 15  2  0
 15 16  1  0
 16 17  2  0
 17 12  1  0
 14 18  1  0
 18 19  1  0
 18 20  2  0
M  END
>  <Name>  (14) 
L-14

$$$$
monoMOF-ligands.sdf
     RDKit          2D

 32 35  0  2  0  0  0  0  0  0999 V2000
   -3.5061   -0.3568    0.0000 C   0  0  0  0  0  0  0  0  0  0  0  0
   -2.6809   -0.3568    0.0000 C   0  0  0  0  0  0  0  0  0  0  0  0
   -2.2682   -1.0720    0.0000 C   0  0  0  0  0  0  0  0  0  0  0  0
   -1.4430   -1.0720    0.0000 C   0  0  0  0  0  0  0  0  0  0  0  0
   -1.0304   -0.3568    0.0000 C   0  0  0  0  0  0  0  0  0  0  0  0
   -1.4430    0.3576    0.0000 C   0  0  0  0  0  0  0  0  0  0  0  0
   -2.2682    0.3576    0.0000 C   0  0  0  0  0  0  0  0  0  0  0  0
   -3.9189    0.3576    0.0000 O   0  0  0  0  0  0  0  0  0  0  0  0
   -0.2052   -0.3568    0.0000 C   0  0  0  0  0  0  0  0  0  0  0  0
    0.2075    0.3576    0.0000 C   0  0  0  0  0  0  0  0  0  0  0  0
    1.0319    0.3576    0.0000 C   0  0  0  0  0  0  0  0  0  0  0  0
    1.4445   -0.3568    0.0000 C   0  0  0  0  0  0  0  0  0  0  0  0
    2.2697   -0.3568    0.0000 C   0  0  0  0  0  0  0  0  0  0  0  0
    2.6817    0.3576    0.0000 C   0  0  0  0  0  0  0  0  0  0  0  0
    2.2697    1.0720    0.0000 C   0  0  0  0  0  0  0  0  0  0  0  0
    1.4445    1.0720    0.0000 C   0  0  0  0  0  0  0  0  0  0  0  0
   -3.9189   -1.0720    0.0000 O   0  0  0  0  0  0  0  0  0  0  0  0
    3.5061    0.3576    0.0000 C   0  0  0  0  0  0  0  0  0  0  0  0
    3.9189    1.0720    0.0000 O   0  0  0  0  0  0  0  0  0  0  0  0
    3.9189   -0.3568    0.0000 O   0  0  0  0  0  0  0  0  0  0  0  0
    0.2075   -1.0720    0.0000 C   0  0  0  0  0  0  0  0  0  0  0  0
   -0.2037   -1.7834    0.0000 C   0  0  0  0  0  0  0  0  0  0  0  0
    0.2075   -2.4948    0.0000 C   0  0  0  0  0  0  0  0  0  0  0  0
    1.0289   -2.4948    0.0000 C   0  0  0  0  0  0  0  0  0  0  0  0
    1.4392   -1.7834    0.0000 C   0  0  0  0  0  0  0  0  0  0  0  0
    1.0289   -1.0720    0.0000 C   0  0  0  0  0  0  0  0  0  0  0  0
   -0.2052    1.0720    0.0000 C   0  0  0  0  0  0  0  0  0  0  0  0
    0.2052    1.7834    0.0000 C   0  0  0  0  0  0  0  0  0  0  0  0
   -0.2052    2.4948    0.0000 C   0  0  0  0  0  0  0  0  0  0  0  0
   -1.0266    2.4948    0.0000 C   0  0  0  0  0  0  0  0  0  0  0  0
   -1.4377    1.7834    0.0000 C   0  0  0  0  0  0  0  0  0  0  0  0
   -1.0266    1.0720    0.0000 C   0  0  0  0  0  0  0  0  0  0  0  0
 25 26  1  0
 24 25  2  0
 23 24  1  0
 22 23  2  0
 21 22  1  0
 21 26  2  0
  9 21  1  0
 31 32  1  0
 30 31  2  0
 29 30  1  0
 28 29  2  0
 27 28  1  0
 27 32  2  0
 10 27  1  0
  1  2  1  0
  2  3  2  0
  3  4  1  0
  4  5  2  0
  5  6  1  0
  6  7  2  0
  7  2  1  0
  1  8  2  0
  5  9  1  0
  9 10  2  0
 10 11  1  0
 11 12  2  0
 12 13  1  0
 13 14  2  0
 14 15  1  0
 15 16  2  0
 16 11  1  0
  1 17  1  0
 14 18  1  0
 18 19  1  0
 18 20  2  0
M  STY  2   1 SUP   2 SUP
M  SLB  2   1   1   2   2
M  SAL   1  6  21  22  23  24  25  26
M  SBL   1  1   7
M  SMT   1 Ph
M  SBV   1   7   -0.4127    0.7152
M  SAL   2  6  27  28  29  30  31  32
M  SBL   2  1  14
M  SMT   2 Ph
M  SBV   2  14    0.4127   -0.7144
M  END
>  <Name>  (15) 
L-15

$$$$
monoMOF-ligands.sdf
     RDKit          2D

 22 23  0  0  0  0  0  0  0  0999 V2000
   -1.6509    0.7149    0.0000 C   0  0  0  0  0  0  0  0  0  0  0  0
   -2.0631    0.0000    0.0000 C   0  0  0  0  0  0  0  0  0  0  0  0
   -1.6517   -0.7141    0.0000 C   0  0  0  0  0  0  0  0  0  0  0  0
   -0.8253   -0.7149    0.0000 C   0  0  0  0  0  0  0  0  0  0  0  0
   -0.4135    0.0000    0.0000 C   0  0  0  0  0  0  0  0  0  0  0  0
   -0.8260    0.7149    0.0000 C   0  0  0  0  0  0  0  0  0  0  0  0
    0.4105    0.0008    0.0000 C   0  0  0  0  0  0  0  0  0  0  0  0
    0.8260   -0.7126    0.0000 C   0  0  0  0  0  0  0  0  0  0  0  0
    1.6502   -0.7149    0.0000 C   0  0  0  0  0  0  0  0  0  0  0  0
    2.0631    0.0008    0.0000 C   0  0  0  0  0  0  0  0  0  0  0  0
    1.6494    0.7126    0.0000 C   0  0  0  0  0  0  0  0  0  0  0  0
    0.8238    0.7164    0.0000 C   0  0  0  0  0  0  0  0  0  0  0  0
   -2.0631    1.4290    0.0000 C   0  0  0  0  0  0  0  0  0  0  0  0
   -2.8880    0.0008    0.0000 C   0  0  0  0  0  0  0  0  0  0  0  0
   -2.0639   -1.4283    0.0000 C   0  0  0  0  0  0  0  0  0  0  0  0
    2.0624    1.4275    0.0000 C   0  0  0  0  0  0  0  0  0  0  0  0
    2.8880    0.0023    0.0000 C   0  0  0  0  0  0  0  0  0  0  0  0
    2.0609   -1.4290    0.0000 C   0  0  0  0  0  0  0  0  0  0  0  0
    3.3013   -0.7118    0.0000 O   0  0  0  0  0  0  0  0  0  0  0  0
    3.2990    0.7172    0.0000 O   0  0  0  0  0  0  0  0  0  0  0  0
   -3.3013   -0.7134    0.0000 O   0  0  0  0  0  0  0  0  0  0  0  0
   -3.3005    0.7157    0.0000 O   0  0  0  0  0  0  0  0  0  0  0  0
  1  2  2  0
  2  3  1  0
  3  4  2  0
  4  5  1  0
  5  6  2  0
  1  6  1  0
  5  7  1  0
  7  8  2  0
  8  9  1  0
  9 10  2  0
 10 11  1  0
 11 12  2  0
  7 12  1  0
  1 13  1  0
  2 14  1  0
  3 15  1  0
 11 16  1  0
 10 17  1  0
  9 18  1  0
 17 19  2  0
 17 20  1  0
 14 21  1  0
 14 22  2  0
M  END
>  <Name>  (16) 
L-16

$$$$
monoMOF-ligands.sdf
     RDKit          2D

 22 25  0  0  0  0  0  0  0  0999 V2000
   -1.6510    0.7141    0.0000 C   0  0  0  0  0  0  0  0  0  0  0  0
   -2.0635    0.0000    0.0000 C   0  0  0  0  0  0  0  0  0  0  0  0
   -1.6518   -0.7149    0.0000 C   0  0  0  0  0  0  0  0  0  0  0  0
   -0.8253   -0.7149    0.0000 C   0  0  0  0  0  0  0  0  0  0  0  0
   -0.4136   -0.0008    0.0000 C   0  0  0  0  0  0  0  0  0  0  0  0
   -0.8260    0.7149    0.0000 C   0  0  0  0  0  0  0  0  0  0  0  0
    0.4106    0.0000    0.0000 C   0  0  0  0  0  0  0  0  0  0  0  0
    0.8260   -0.7126    0.0000 C   0  0  0  0  0  0  0  0  0  0  0  0
    1.6503   -0.7149    0.0000 C   0  0  0  0  0  0  0  0  0  0  0  0
    2.0635    0.0000    0.0000 C   0  0  0  0  0  0  0  0  0  0  0  0
    1.6495    0.7126    0.0000 C   0  0  0  0  0  0  0  0  0  0  0  0
    0.8238    0.7157    0.0000 C   0  0  0  0  0  0  0  0  0  0  0  0
   -2.8884    0.0000    0.0000 C   0  0  0  0  0  0  0  0  0  0  0  0
    2.8884    0.0015    0.0000 C   0  0  0  0  0  0  0  0  0  0  0  0
    3.3017   -0.7126    0.0000 O   0  0  0  0  0  0  0  0  0  0  0  0
    3.2994    0.7164    0.0000 O   0  0  0  0  0  0  0  0  0  0  0  0
   -3.3017   -0.7141    0.0000 O   0  0  0  0  0  0  0  0  0  0  0  0
   -3.3009    0.7149    0.0000 O   0  0  0  0  0  0  0  0  0  0  0  0
    0.4129    1.4299    0.0000 C   0  0  0  0  0  0  0  0  0  0  0  0
   -0.4136    1.4299    0.0000 C   0  0  0  0  0  0  0  0  0  0  0  0
   -0.4129   -1.4299    0.0000 C   0  0  0  0  0  0  0  0  0  0  0  0
    0.4121   -1.4299    0.0000 C   0  0  0  0  0  0  0  0  0  0  0  0
  1  2  2  0
  2  3  1  0
  3  4  2  0
  4  5  1  0
  5  6  2  0
  1  6  1  0
  5  7  1  0
  7  8  2  0
  8  9  1  0
  9 10  2  0
 10 11  1  0
 11 12  2  0
  7 12  1  0
  2 13  1  0
 10 14  1  0
 14 15  2  0
 14 16  1  0
 13 17  1  0
 13 18  2  0
 12 19  1  0
 19 20  2  0
 20  6  1  0
  4 21  1  0
 21 22  2  0
 22  8  1  0
M  END
>  <Name>  (17) 
L-17

$$$$
monoMOF-ligands.sdf
     RDKit          2D

 19 20  0  0  0  0  0  0  0  0999 V2000
   -1.6504    0.3582    0.0000 C   0  0  0  0  0  0  0  0  0  0  0  0
   -2.0628   -0.3566    0.0000 C   0  0  0  0  0  0  0  0  0  0  0  0
   -1.6512   -1.0707    0.0000 C   0  0  0  0  0  0  0  0  0  0  0  0
   -0.8251   -1.0722    0.0000 C   0  0  0  0  0  0  0  0  0  0  0  0
   -0.4135   -0.3566    0.0000 C   0  0  0  0  0  0  0  0  0  0  0  0
   -0.8258    0.3582    0.0000 C   0  0  0  0  0  0  0  0  0  0  0  0
    0.4105   -0.3559    0.0000 C   0  0  0  0  0  0  0  0  0  0  0  0
    0.8258   -1.0691    0.0000 C   0  0  0  0  0  0  0  0  0  0  0  0
    1.6497   -1.0722    0.0000 C   0  0  0  0  0  0  0  0  0  0  0  0
    2.0628   -0.3559    0.0000 C   0  0  0  0  0  0  0  0  0  0  0  0
    1.6489    0.3559    0.0000 C   0  0  0  0  0  0  0  0  0  0  0  0
    0.8236    0.3597    0.0000 C   0  0  0  0  0  0  0  0  0  0  0  0
   -2.8875   -0.3559    0.0000 C   0  0  0  0  0  0  0  0  0  0  0  0
    2.8875   -0.3543    0.0000 C   0  0  0  0  0  0  0  0  0  0  0  0
    3.3007   -1.0684    0.0000 O   0  0  0  0  0  0  0  0  0  0  0  0
    3.2984    0.3605    0.0000 O   0  0  0  0  0  0  0  0  0  0  0  0
   -3.3007   -1.0699    0.0000 O   0  0  0  0  0  0  0  0  0  0  0  0
   -3.2999    0.3589    0.0000 O   0  0  0  0  0  0  0  0  0  0  0  0
   -0.4135    1.0722    0.0000 F   0  0  0  0  0  0  0  0  0  0  0  0
  1  2  2  0
  2  3  1  0
  3  4  2  0
  4  5  1  0
  5  6  2  0
  1  6  1  0
  5  7  1  0
  7  8  2  0
  8  9  1  0
  9 10  2  0
 10 11  1  0
 11 12  2  0
  7 12  1  0
  2 13  1  0
 10 14  1  0
 14 15  2  0
 14 16  1  0
 13 17  1  0
 13 18  2  0
  6 19  1  0
M  END
>  <Name>  (18) 
L-18

$$$$
monoMOF-ligands.sdf
     RDKit          2D

 20 21  0  0  0  0  0  0  0  0999 V2000
   -1.6506    0.7144    0.0000 C   0  0  0  0  0  0  0  0  0  0  0  0
   -2.0630   -0.0004    0.0000 C   0  0  0  0  0  0  0  0  0  0  0  0
   -1.6514   -0.7144    0.0000 C   0  0  0  0  0  0  0  0  0  0  0  0
   -0.8252   -0.7159    0.0000 C   0  0  0  0  0  0  0  0  0  0  0  0
   -0.4135   -0.0004    0.0000 C   0  0  0  0  0  0  0  0  0  0  0  0
   -0.8259    0.7144    0.0000 C   0  0  0  0  0  0  0  0  0  0  0  0
    0.4105    0.0004    0.0000 C   0  0  0  0  0  0  0  0  0  0  0  0
    0.8259   -0.7129    0.0000 C   0  0  0  0  0  0  0  0  0  0  0  0
    1.6499   -0.7159    0.0000 C   0  0  0  0  0  0  0  0  0  0  0  0
    2.0630    0.0004    0.0000 C   0  0  0  0  0  0  0  0  0  0  0  0
    1.6491    0.7121    0.0000 C   0  0  0  0  0  0  0  0  0  0  0  0
    0.8237    0.7159    0.0000 C   0  0  0  0  0  0  0  0  0  0  0  0
   -2.8878    0.0004    0.0000 C   0  0  0  0  0  0  0  0  0  0  0  0
    2.8878    0.0019    0.0000 C   0  0  0  0  0  0  0  0  0  0  0  0
    3.3010   -0.7121    0.0000 O   0  0  0  0  0  0  0  0  0  0  0  0
    3.2987    0.7168    0.0000 O   0  0  0  0  0  0  0  0  0  0  0  0
   -3.3010   -0.7137    0.0000 O   0  0  0  0  0  0  0  0  0  0  0  0
   -3.3002    0.7152    0.0000 O   0  0  0  0  0  0  0  0  0  0  0  0
   -2.0630    1.4285    0.0000 F   0  0  0  0  0  0  0  0  0  0  0  0
   -2.0646   -1.4285    0.0000 F   0  0  0  0  0  0  0  0  0  0  0  0
  1  2  2  0
  2  3  1  0
  3  4  2  0
  4  5  1  0
  5  6  2  0
  1  6  1  0
  5  7  1  0
  7  8  2  0
  8  9  1  0
  9 10  2  0
 10 11  1  0
 11 12  2  0
  7 12  1  0
  2 13  1  0
 10 14  1  0
 14 15  2  0
 14 16  1  0
 13 17  1  0
 13 18  2  0
  1 19  1  0
  3 20  1  0
M  END
>  <Name>  (19) 
L-19

$$$$
monoMOF-ligands.sdf
     RDKit          2D

 19 20  0  0  0  0  0  0  0  0999 V2000
   -1.6504    0.3582    0.0000 C   0  0  0  0  0  0  0  0  0  0  0  0
   -2.0628   -0.3566    0.0000 C   0  0  0  0  0  0  0  0  0  0  0  0
   -1.6512   -1.0707    0.0000 C   0  0  0  0  0  0  0  0  0  0  0  0
   -0.8251   -1.0722    0.0000 C   0  0  0  0  0  0  0  0  0  0  0  0
   -0.4135   -0.3566    0.0000 C   0  0  0  0  0  0  0  0  0  0  0  0
   -0.8258    0.3582    0.0000 C   0  0  0  0  0  0  0  0  0  0  0  0
    0.4105   -0.3559    0.0000 C   0  0  0  0  0  0  0  0  0  0  0  0
    0.8258   -1.0691    0.0000 C   0  0  0  0  0  0  0  0  0  0  0  0
    1.6497   -1.0722    0.0000 C   0  0  0  0  0  0  0  0  0  0  0  0
    2.0628   -0.3559    0.0000 C   0  0  0  0  0  0  0  0  0  0  0  0
    1.6489    0.3559    0.0000 C   0  0  0  0  0  0  0  0  0  0  0  0
    0.8236    0.3597    0.0000 C   0  0  0  0  0  0  0  0  0  0  0  0
   -2.8875   -0.3559    0.0000 C   0  0  0  0  0  0  0  0  0  0  0  0
    2.8875   -0.3543    0.0000 C   0  0  0  0  0  0  0  0  0  0  0  0
    3.3007   -1.0684    0.0000 O   0  0  0  0  0  0  0  0  0  0  0  0
    3.2984    0.3605    0.0000 O   0  0  0  0  0  0  0  0  0  0  0  0
   -3.3007   -1.0699    0.0000 O   0  0  0  0  0  0  0  0  0  0  0  0
   -3.2999    0.3589    0.0000 O   0  0  0  0  0  0  0  0  0  0  0  0
   -0.4128    1.0722    0.0000 N   0  0  0  0  0  0  0  0  0  0  0  0
  1  2  2  0
  2  3  1  0
  3  4  2  0
  4  5  1  0
  5  6  2  0
  1  6  1  0
  5  7  1  0
  7  8  2  0
  8  9  1  0
  9 10  2  0
 10 11  1  0
 11 12  2  0
  7 12  1  0
  2 13  1  0
 10 14  1  0
 14 15  2  0
 14 16  1  0
 13 17  1  0
 13 18  2  0
  6 19  1  0
M  END
>  <Name>  (20) 
L-20

$$$$
monoMOF-ligands.sdf
     RDKit          2D

 20 21  0  0  0  0  0  0  0  0999 V2000
   -1.6506    0.3582    0.0000 C   0  0  0  0  0  0  0  0  0  0  0  0
   -2.0630   -0.3566    0.0000 C   0  0  0  0  0  0  0  0  0  0  0  0
   -1.6514   -1.0708    0.0000 C   0  0  0  0  0  0  0  0  0  0  0  0
   -0.8252   -1.0723    0.0000 C   0  0  0  0  0  0  0  0  0  0  0  0
   -0.4135   -0.3566    0.0000 C   0  0  0  0  0  0  0  0  0  0  0  0
   -0.8259    0.3582    0.0000 C   0  0  0  0  0  0  0  0  0  0  0  0
    0.4105   -0.3559    0.0000 C   0  0  0  0  0  0  0  0  0  0  0  0
    0.8259   -1.0692    0.0000 C   0  0  0  0  0  0  0  0  0  0  0  0
    1.6499   -1.0723    0.0000 C   0  0  0  0  0  0  0  0  0  0  0  0
    2.0630   -0.3559    0.0000 C   0  0  0  0  0  0  0  0  0  0  0  0
    1.6491    0.3559    0.0000 C   0  0  0  0  0  0  0  0  0  0  0  0
    0.8237    0.3597    0.0000 C   0  0  0  0  0  0  0  0  0  0  0  0
   -2.8878   -0.3559    0.0000 C   0  0  0  0  0  0  0  0  0  0  0  0
    2.8878   -0.3543    0.0000 C   0  0  0  0  0  0  0  0  0  0  0  0
    3.3010   -1.0685    0.0000 O   0  0  0  0  0  0  0  0  0  0  0  0
    3.2987    0.3605    0.0000 O   0  0  0  0  0  0  0  0  0  0  0  0
   -3.3010   -1.0700    0.0000 O   0  0  0  0  0  0  0  0  0  0  0  0
   -3.3002    0.3589    0.0000 O   0  0  0  0  0  0  0  0  0  0  0  0
   -2.0630    1.0723    0.0000 F   0  0  0  0  0  0  0  0  0  0  0  0
    2.0623    1.0692    0.0000 F   0  0  0  0  0  0  0  0  0  0  0  0
  1  2  2  0
  2  3  1  0
  3  4  2  0
  4  5  1  0
  5  6  2  0
  1  6  1  0
  5  7  1  0
  7  8  2  0
  8  9  1  0
  9 10  2  0
 10 11  1  0
 11 12  2  0
  7 12  1  0
  2 13  1  0
 10 14  1  0
 14 15  2  0
 14 16  1  0
 13 17  1  0
 13 18  2  0
  1 19  1  0
 11 20  1  0
M  END
>  <Name>  (21) 
L-21

$$$$
monoMOF-ligands.sdf
     RDKit          2D

 19 20  0  0  0  0  0  0  0  0999 V2000
   -1.6504    0.3582    0.0000 C   0  0  0  0  0  0  0  0  0  0  0  0
   -2.0628   -0.3566    0.0000 C   0  0  0  0  0  0  0  0  0  0  0  0
   -1.6512   -1.0707    0.0000 C   0  0  0  0  0  0  0  0  0  0  0  0
   -0.8251   -1.0722    0.0000 C   0  0  0  0  0  0  0  0  0  0  0  0
   -0.4135   -0.3566    0.0000 C   0  0  0  0  0  0  0  0  0  0  0  0
   -0.8258    0.3582    0.0000 C   0  0  0  0  0  0  0  0  0  0  0  0
    0.4105   -0.3559    0.0000 C   0  0  0  0  0  0  0  0  0  0  0  0
    0.8258   -1.0691    0.0000 C   0  0  0  0  0  0  0  0  0  0  0  0
    1.6497   -1.0722    0.0000 C   0  0  0  0  0  0  0  0  0  0  0  0
    2.0628   -0.3559    0.0000 C   0  0  0  0  0  0  0  0  0  0  0  0
    1.6489    0.3559    0.0000 C   0  0  0  0  0  0  0  0  0  0  0  0
    0.8236    0.3597    0.0000 C   0  0  0  0  0  0  0  0  0  0  0  0
   -2.8875   -0.3559    0.0000 C   0  0  0  0  0  0  0  0  0  0  0  0
    2.8875   -0.3543    0.0000 C   0  0  0  0  0  0  0  0  0  0  0  0
    3.3007   -1.0684    0.0000 O   0  0  0  0  0  0  0  0  0  0  0  0
    3.2984    0.3605    0.0000 O   0  0  0  0  0  0  0  0  0  0  0  0
   -3.3007   -1.0699    0.0000 O   0  0  0  0  0  0  0  0  0  0  0  0
   -3.2999    0.3589    0.0000 O   0  0  0  0  0  0  0  0  0  0  0  0
   -2.0628    1.0722    0.0000 N   0  0  0  0  0  0  0  0  0  0  0  0
  1  2  2  0
  2  3  1  0
  3  4  2  0
  4  5  1  0
  5  6  2  0
  1  6  1  0
  5  7  1  0
  7  8  2  0
  8  9  1  0
  9 10  2  0
 10 11  1  0
 11 12  2  0
  7 12  1  0
  2 13  1  0
 10 14  1  0
 14 15  2  0
 14 16  1  0
 13 17  1  0
 13 18  2  0
  1 19  1  0
M  END
>  <Name>  (22) 
L-22

$$$$
monoMOF-ligands.sdf
     RDKit          2D

 19 20  0  0  0  0  0  0  0  0999 V2000
   -1.6504    0.3582    0.0000 C   0  0  0  0  0  0  0  0  0  0  0  0
   -2.0628   -0.3566    0.0000 C   0  0  0  0  0  0  0  0  0  0  0  0
   -1.6512   -1.0707    0.0000 C   0  0  0  0  0  0  0  0  0  0  0  0
   -0.8251   -1.0722    0.0000 C   0  0  0  0  0  0  0  0  0  0  0  0
   -0.4135   -0.3566    0.0000 C   0  0  0  0  0  0  0  0  0  0  0  0
   -0.8258    0.3582    0.0000 C   0  0  0  0  0  0  0  0  0  0  0  0
    0.4105   -0.3559    0.0000 C   0  0  0  0  0  0  0  0  0  0  0  0
    0.8258   -1.0691    0.0000 C   0  0  0  0  0  0  0  0  0  0  0  0
    1.6497   -1.0722    0.0000 C   0  0  0  0  0  0  0  0  0  0  0  0
    2.0628   -0.3559    0.0000 C   0  0  0  0  0  0  0  0  0  0  0  0
    1.6489    0.3559    0.0000 C   0  0  0  0  0  0  0  0  0  0  0  0
    0.8236    0.3597    0.0000 C   0  0  0  0  0  0  0  0  0  0  0  0
   -2.8875   -0.3559    0.0000 C   0  0  0  0  0  0  0  0  0  0  0  0
    2.8875   -0.3543    0.0000 C   0  0  0  0  0  0  0  0  0  0  0  0
    3.3007   -1.0684    0.0000 O   0  0  0  0  0  0  0  0  0  0  0  0
    3.2984    0.3605    0.0000 O   0  0  0  0  0  0  0  0  0  0  0  0
   -3.3007   -1.0699    0.0000 O   0  0  0  0  0  0  0  0  0  0  0  0
   -3.2999    0.3589    0.0000 O   0  0  0  0  0  0  0  0  0  0  0  0
   -2.0628    1.0722    0.0000 F   0  0  0  0  0  0  0  0  0  0  0  0
  1  2  2  0
  2  3  1  0
  3  4  2  0
  4  5  1  0
  5  6  2  0
  1  6  1  0
  5  7  1  0
  7  8  2  0
  8  9  1  0
  9 10  2  0
 10 11  1  0
 11 12  2  0
  7 12  1  0
  2 13  1  0
 10 14  1  0
 14 15  2  0
 14 16  1  0
 13 17  1  0
 13 18  2  0
  1 19  1  0
M  END
>  <Name>  (23) 
L-23

$$$$
monoMOF-ligands.sdf
     RDKit          2D

 20 21  0  0  0  0  0  0  0  0999 V2000
   -1.6507    0.3570    0.0000 C   0  0  0  0  0  0  0  0  0  0  0  0
   -2.0633   -0.3578    0.0000 C   0  0  0  0  0  0  0  0  0  0  0  0
   -1.6515   -1.0718    0.0000 C   0  0  0  0  0  0  0  0  0  0  0  0
   -0.8252   -1.0733    0.0000 C   0  0  0  0  0  0  0  0  0  0  0  0
   -0.4135   -0.3578    0.0000 C   0  0  0  0  0  0  0  0  0  0  0  0
   -0.8259    0.3570    0.0000 C   0  0  0  0  0  0  0  0  0  0  0  0
    0.4105   -0.3570    0.0000 C   0  0  0  0  0  0  0  0  0  0  0  0
    0.8259   -1.0703    0.0000 C   0  0  0  0  0  0  0  0  0  0  0  0
    1.6500   -1.0733    0.0000 C   0  0  0  0  0  0  0  0  0  0  0  0
    2.0633   -0.3570    0.0000 C   0  0  0  0  0  0  0  0  0  0  0  0
    1.6492    0.3547    0.0000 C   0  0  0  0  0  0  0  0  0  0  0  0
    0.8237    0.3585    0.0000 C   0  0  0  0  0  0  0  0  0  0  0  0
   -2.8881   -0.3570    0.0000 C   0  0  0  0  0  0  0  0  0  0  0  0
    2.8881   -0.3555    0.0000 C   0  0  0  0  0  0  0  0  0  0  0  0
    3.3013   -1.0695    0.0000 O   0  0  0  0  0  0  0  0  0  0  0  0
    3.2990    0.3593    0.0000 O   0  0  0  0  0  0  0  0  0  0  0  0
   -3.3013   -1.0711    0.0000 O   0  0  0  0  0  0  0  0  0  0  0  0
   -3.3005    0.3578    0.0000 O   0  0  0  0  0  0  0  0  0  0  0  0
   -0.4128    1.0711    0.0000 C   0  0  0  0  0  0  0  0  0  0  0  0
    0.4135    1.0733    0.0000 C   0  0  0  0  0  0  0  0  0  0  0  0
  1  2  2  0
  2  3  1  0
  3  4  2  0
  4  5  1  0
  5  6  2  0
  1  6  1  0
  5  7  1  0
  7  8  2  0
  8  9  1  0
  9 10  2  0
 10 11  1  0
 11 12  2  0
  7 12  1  0
  2 13  1  0
 10 14  1  0
 14 15  2  0
 14 16  1  0
 13 17  1  0
 13 18  2  0
  6 19  1  0
 12 20  1  0
M  END
>  <Name>  (24) 
L-24

$$$$
monoMOF-ligands.sdf
     RDKit          2D

 26 30  0  0  0  0  0  0  0  0999 V2000
    2.0623    0.7137    0.0000 C   0  0  0  0  0  0  0  0  0  0  0  0
    1.6497    1.4289    0.0000 C   0  0  0  0  0  0  0  0  0  0  0  0
    0.8244    1.4289    0.0000 C   0  0  0  0  0  0  0  0  0  0  0  0
    0.4118    0.7137    0.0000 C   0  0  0  0  0  0  0  0  0  0  0  0
   -0.4141    0.7129    0.0000 C   0  0  0  0  0  0  0  0  0  0  0  0
   -0.8260    1.4273    0.0000 C   0  0  0  0  0  0  0  0  0  0  0  0
   -1.6505    1.4273    0.0000 C   0  0  0  0  0  0  0  0  0  0  0  0
   -2.0631    0.7129    0.0000 C   0  0  0  0  0  0  0  0  0  0  0  0
   -3.3001   -1.4289    0.0000 O   0  0  0  0  0  0  0  0  0  0  0  0
   -3.3001   -0.0008    0.0000 O   0  0  0  0  0  0  0  0  0  0  0  0
    0.8244   -1.4289    0.0000 C   0  0  0  0  0  0  0  0  0  0  0  0
    1.6497   -1.4289    0.0000 C   0  0  0  0  0  0  0  0  0  0  0  0
    2.0623   -0.7152    0.0000 C   0  0  0  0  0  0  0  0  0  0  0  0
    1.6497   -0.0008    0.0000 C   0  0  0  0  0  0  0  0  0  0  0  0
    0.8244   -0.0008    0.0000 C   0  0  0  0  0  0  0  0  0  0  0  0
   -2.8875   -0.7152    0.0000 C   0  0  0  0  0  0  0  0  0  0  0  0
    0.4118   -0.7152    0.0000 C   0  0  0  0  0  0  0  0  0  0  0  0
   -2.0631   -0.7152    0.0000 C   0  0  0  0  0  0  0  0  0  0  0  0
   -1.6505   -1.4289    0.0000 C   0  0  0  0  0  0  0  0  0  0  0  0
   -0.8260   -1.4289    0.0000 C   0  0  0  0  0  0  0  0  0  0  0  0
   -0.4134   -0.7152    0.0000 C   0  0  0  0  0  0  0  0  0  0  0  0
   -0.8260   -0.0008    0.0000 C   0  0  0  0  0  0  0  0  0  0  0  0
   -1.6505   -0.0008    0.0000 C   0  0  0  0  0  0  0  0  0  0  0  0
    2.8875    0.7137    0.0000 C   0  0  0  0  0  0  0  0  0  0  0  0
    3.3001    1.4281    0.0000 O   0  0  0  0  0  0  0  0  0  0  0  0
    3.3001   -0.0015    0.0000 O   0  0  0  0  0  0  0  0  0  0  0  0
  1 14  2  0
  2  1  1  0
  3  2  2  0
  4  3  1  0
 15  4  2  0
  5 22  2  0
  6  5  1  0
  7  6  2  0
  8  7  1  0
 23  8  2  0
 16  9  2  0
 16 10  1  0
 11 17  2  0
 12 11  1  0
 13 12  2  0
 15 14  1  0
 17 15  1  0
 18 16  1  0
 21 17  1  0
 18 23  1  0
 19 18  2  0
 20 19  1  0
 21 20  2  0
 22 21  1  0
 23 22  1  0
 13 14  1  0
  5  4  1  0
  1 24  1  0
 24 25  2  0
 24 26  1  0
M  END
>  <Name>  (25) 
L-25

$$$$
monoMOF-ligands.sdf
     RDKit          2D

 16 17  0  0  0  0  0  0  0  0999 V2000
   -1.0317    0.3563    0.0000 C   0  0  0  0  0  0  0  0  0  0  0  0
   -1.4439   -0.3578    0.0000 C   0  0  0  0  0  0  0  0  0  0  0  0
   -1.0325   -1.0718    0.0000 C   0  0  0  0  0  0  0  0  0  0  0  0
   -0.2061   -1.0726    0.0000 C   0  0  0  0  0  0  0  0  0  0  0  0
    0.2054   -0.3585    0.0000 C   0  0  0  0  0  0  0  0  0  0  0  0
   -0.2069    0.3570    0.0000 C   0  0  0  0  0  0  0  0  0  0  0  0
   -2.2686   -0.3570    0.0000 C   0  0  0  0  0  0  0  0  0  0  0  0
   -2.6818   -1.0711    0.0000 O   0  0  0  0  0  0  0  0  0  0  0  0
   -2.6810    0.3570    0.0000 O   0  0  0  0  0  0  0  0  0  0  0  0
    1.0317   -0.3585    0.0000 C   0  0  0  0  0  0  0  0  0  0  0  0
    1.4447    0.3570    0.0000 C   0  0  0  0  0  0  0  0  0  0  0  0
    1.0317    1.0726    0.0000 C   0  0  0  0  0  0  0  0  0  0  0  0
    0.2054    1.0726    0.0000 C   0  0  0  0  0  0  0  0  0  0  0  0
    2.2694    0.3570    0.0000 C   0  0  0  0  0  0  0  0  0  0  0  0
    2.6818    1.0711    0.0000 O   0  0  0  0  0  0  0  0  0  0  0  0
    2.6818   -0.3578    0.0000 O   0  0  0  0  0  0  0  0  0  0  0  0
  1  2  2  0
  2  3  1  0
  3  4  2  0
  4  5  1  0
  5  6  2  0
  1  6  1  0
  2  7  1  0
  7  8  1  0
  7  9  2  0
  5 10  1  0
 10 11  2  0
 11 12  1  0
 12 13  2  0
 13  6  1  0
 11 14  1  0
 14 15  1  0
 14 16  2  0
M  END
>  <Name>  (26) 
L-26

$$$$
monoMOF-ligands.sdf
     RDKit          2D

 20 21  0  0  0  0  0  0  0  0999 V2000
   -3.5059   -0.3568    0.0000 C   0  0  0  0  0  0  0  0  0  0  0  0
   -2.6808   -0.3568    0.0000 C   0  0  0  0  0  0  0  0  0  0  0  0
   -2.2681   -1.0712    0.0000 C   0  0  0  0  0  0  0  0  0  0  0  0
   -1.4429   -1.0712    0.0000 C   0  0  0  0  0  0  0  0  0  0  0  0
   -1.0304   -0.3568    0.0000 C   0  0  0  0  0  0  0  0  0  0  0  0
   -1.4429    0.3576    0.0000 C   0  0  0  0  0  0  0  0  0  0  0  0
   -2.2681    0.3576    0.0000 C   0  0  0  0  0  0  0  0  0  0  0  0
   -3.9186    0.3576    0.0000 O   0  0  0  0  0  0  0  0  0  0  0  0
   -0.2067   -0.3568    0.0000 N   0  0  0  0  0  0  0  0  0  0  0  0
    0.2060    0.3576    0.0000 N   0  0  0  0  0  0  0  0  0  0  0  0
    1.0304    0.3576    0.0000 C   0  0  0  0  0  0  0  0  0  0  0  0
    1.4429   -0.3568    0.0000 C   0  0  0  0  0  0  0  0  0  0  0  0
    2.2681   -0.3568    0.0000 C   0  0  0  0  0  0  0  0  0  0  0  0
    2.6808    0.3576    0.0000 C   0  0  0  0  0  0  0  0  0  0  0  0
    2.2681    1.0712    0.0000 C   0  0  0  0  0  0  0  0  0  0  0  0
    1.4429    1.0712    0.0000 C   0  0  0  0  0  0  0  0  0  0  0  0
   -3.9186   -1.0712    0.0000 O   0  0  0  0  0  0  0  0  0  0  0  0
    3.5059    0.3576    0.0000 C   0  0  0  0  0  0  0  0  0  0  0  0
    3.9186    1.0712    0.0000 O   0  0  0  0  0  0  0  0  0  0  0  0
    3.9186   -0.3568    0.0000 O   0  0  0  0  0  0  0  0  0  0  0  0
  1  2  1  0
  2  3  2  0
  3  4  1  0
  4  5  2  0
  5  6  1  0
  6  7  2  0
  7  2  1  0
  1  8  2  0
  5  9  1  0
  9 10  2  0
 10 11  1  0
 11 12  2  0
 12 13  1  0
 13 14  2  0
 14 15  1  0
 15 16  2  0
 16 11  1  0
  1 17  1  0
 14 18  1  0
 18 19  1  0
 18 20  2  0
M  END
>  <Name>  (27) 
L-27

$$$$
monoMOF-ligands.sdf
     RDKit          2D

 20 21  0  0  0  0  0  0  0  0999 V2000
   -3.5058   -0.3572    0.0000 C   0  0  0  0  0  0  0  0  0  0  0  0
   -2.6806   -0.3572    0.0000 C   0  0  0  0  0  0  0  0  0  0  0  0
   -2.2680   -1.0716    0.0000 C   0  0  0  0  0  0  0  0  0  0  0  0
   -1.4429   -1.0716    0.0000 C   0  0  0  0  0  0  0  0  0  0  0  0
   -1.0303   -0.3572    0.0000 C   0  0  0  0  0  0  0  0  0  0  0  0
   -1.4429    0.3572    0.0000 C   0  0  0  0  0  0  0  0  0  0  0  0
   -2.2680    0.3572    0.0000 C   0  0  0  0  0  0  0  0  0  0  0  0
   -3.9185    0.3572    0.0000 O   0  0  0  0  0  0  0  0  0  0  0  0
   -0.2066   -0.3572    0.0000 S   0  0  0  0  0  0  0  0  0  0  0  0
    0.2059    0.3572    0.0000 S   0  0  0  0  0  0  0  0  0  0  0  0
    1.0303    0.3572    0.0000 C   0  0  0  0  0  0  0  0  0  0  0  0
    1.4429   -0.3572    0.0000 C   0  0  0  0  0  0  0  0  0  0  0  0
    2.2680   -0.3572    0.0000 C   0  0  0  0  0  0  0  0  0  0  0  0
    2.6806    0.3572    0.0000 C   0  0  0  0  0  0  0  0  0  0  0  0
    2.2680    1.0716    0.0000 C   0  0  0  0  0  0  0  0  0  0  0  0
    1.4429    1.0716    0.0000 C   0  0  0  0  0  0  0  0  0  0  0  0
   -3.9185   -1.0716    0.0000 O   0  0  0  0  0  0  0  0  0  0  0  0
    3.5057    0.3572    0.0000 C   0  0  0  0  0  0  0  0  0  0  0  0
    3.9185    1.0716    0.0000 O   0  0  0  0  0  0  0  0  0  0  0  0
    3.9185   -0.3572    0.0000 O   0  0  0  0  0  0  0  0  0  0  0  0
  1  2  1  0
  2  3  2  0
  3  4  1  0
  4  5  2  0
  5  6  1  0
  6  7  2  0
  7  2  1  0
  1  8  2  0
  5  9  1  0
 10 11  1  0
 11 12  2  0
 12 13  1  0
 13 14  2  0
 14 15  1  0
 15 16  2  0
 16 11  1  0
  1 17  1  0
 14 18  1  0
 18 19  1  0
 18 20  2  0
 10  9  1  0
M  END
>  <Name>  (28) 
L-28

$$$$
monoMOF-ligands.sdf
     RDKit          2D

 20 21  0  0  0  0  0  0  0  0999 V2000
   -2.2691   -1.0719    0.0000 C   0  0  0  0  0  0  0  0  0  0  0  0
   -1.4441   -1.0711    0.0000 C   0  0  0  0  0  0  0  0  0  0  0  0
   -1.0319   -0.3573    0.0000 C   0  0  0  0  0  0  0  0  0  0  0  0
   -1.4441    0.3573    0.0000 C   0  0  0  0  0  0  0  0  0  0  0  0
   -2.2691    0.3573    0.0000 C   0  0  0  0  0  0  0  0  0  0  0  0
   -2.6813   -0.3573    0.0000 C   0  0  0  0  0  0  0  0  0  0  0  0
    1.0312    0.3573    0.0000 C   0  0  0  0  0  0  0  0  0  0  0  0
   -3.5064   -0.3573    0.0000 C   0  0  0  0  0  0  0  0  0  0  0  0
    1.4433   -0.3565    0.0000 C   0  0  0  0  0  0  0  0  0  0  0  0
    2.2691   -0.3565    0.0000 C   0  0  0  0  0  0  0  0  0  0  0  0
    2.6813    0.3573    0.0000 C   0  0  0  0  0  0  0  0  0  0  0  0
    2.2691    1.0719    0.0000 C   0  0  0  0  0  0  0  0  0  0  0  0
    1.4433    1.0719    0.0000 C   0  0  0  0  0  0  0  0  0  0  0  0
    3.5064    0.3573    0.0000 C   0  0  0  0  0  0  0  0  0  0  0  0
    3.9193    1.0719    0.0000 O   0  0  0  0  0  0  0  0  0  0  0  0
    3.9193   -0.3573    0.0000 O   0  0  0  0  0  0  0  0  0  0  0  0
   -3.9193   -1.0719    0.0000 O   0  0  0  0  0  0  0  0  0  0  0  0
   -3.9193    0.3573    0.0000 O   0  0  0  0  0  0  0  0  0  0  0  0
   -0.2069   -0.3573    0.0000 C   0  0  0  0  0  0  0  0  0  0  0  0
    0.2061    0.3573    0.0000 C   0  0  0  0  0  0  0  0  0  0  0  0
  1  2  2  0
  2  3  1  0
  3  4  2  0
  4  5  1  0
  5  6  2  0
  6  1  1  0
  6  8  1  0
  7  9  2  0
  9 10  1  0
 10 11  2  0
 11 12  1  0
 12 13  2  0
 13  7  1  0
 11 14  1  0
 14 15  1  0
 14 16  2  0
  8 17  1  0
  8 18  2  0
  3 19  1  0
 19 20  2  0
 20  7  1  0
M  END
>  <Name>  (29) 
L-29

$$$$
monoMOF-ligands.sdf
     RDKit          2D

 20 21  0  0  0  0  0  0  0  0999 V2000
   -2.4746   -0.7146    0.0000 C   0  0  0  0  0  0  0  0  0  0  0  0
   -1.6496   -0.7146    0.0000 C   0  0  0  0  0  0  0  0  0  0  0  0
   -1.2371    0.0004    0.0000 C   0  0  0  0  0  0  0  0  0  0  0  0
   -1.6496    0.7146    0.0000 C   0  0  0  0  0  0  0  0  0  0  0  0
   -2.4746    0.7146    0.0000 C   0  0  0  0  0  0  0  0  0  0  0  0
   -2.8871    0.0004    0.0000 C   0  0  0  0  0  0  0  0  0  0  0  0
   -0.4121    0.0004    0.0000 C   0  0  0  0  0  0  0  0  0  0  0  0
    0.4129    0.0004    0.0000 C   0  0  0  0  0  0  0  0  0  0  0  0
    1.2379    0.0004    0.0000 C   0  0  0  0  0  0  0  0  0  0  0  0
    1.6504   -0.7146    0.0000 C   0  0  0  0  0  0  0  0  0  0  0  0
    2.4739   -0.7146    0.0000 C   0  0  0  0  0  0  0  0  0  0  0  0
    2.8864    0.0004    0.0000 C   0  0  0  0  0  0  0  0  0  0  0  0
    2.4739    0.7146    0.0000 C   0  0  0  0  0  0  0  0  0  0  0  0
    1.6504    0.7146    0.0000 C   0  0  0  0  0  0  0  0  0  0  0  0
   -3.7114    0.0004    0.0000 C   0  0  0  0  0  0  0  0  0  0  0  0
    3.7114    0.0004    0.0000 C   0  0  0  0  0  0  0  0  0  0  0  0
    4.1239   -0.7146    0.0000 O   0  0  0  0  0  0  0  0  0  0  0  0
    4.1239    0.7146    0.0000 O   0  0  0  0  0  0  0  0  0  0  0  0
   -4.1239   -0.7146    0.0000 O   0  0  0  0  0  0  0  0  0  0  0  0
   -4.1239    0.7146    0.0000 O   0  0  0  0  0  0  0  0  0  0  0  0
  1  2  2  0
  2  3  1  0
  3  4  2  0
  4  5  1  0
  5  6  2  0
  6  1  1  0
  3  7  1  0
  7  8  3  0
  8  9  1  0
  9 10  2  0
 10 11  1  0
 11 12  2  0
 12 13  1  0
 13 14  2  0
 14  9  1  0
  6 15  1  0
 12 16  1  0
 16 17  2  0
 15 20  2  0
 15 19  1  0
 16 18  1  0
M  END
>  <Name>  (30) 
L-30

$$$$
monoMOF-ligands.sdf
     RDKit          2D

 24 26  0  0  0  0  0  0  0  0999 V2000
   -2.8881   -0.7147    0.0000 C   0  0  0  0  0  0  0  0  0  0  0  0
   -2.0633   -0.7147    0.0000 C   0  0  0  0  0  0  0  0  0  0  0  0
   -1.6505    0.0008    0.0000 C   0  0  0  0  0  0  0  0  0  0  0  0
   -2.0633    0.7147    0.0000 C   0  0  0  0  0  0  0  0  0  0  0  0
   -2.8881    0.7147    0.0000 C   0  0  0  0  0  0  0  0  0  0  0  0
   -3.3001    0.0008    0.0000 C   0  0  0  0  0  0  0  0  0  0  0  0
   -0.8251    0.0008    0.0000 C   0  0  0  0  0  0  0  0  0  0  0  0
   -4.1254    0.0008    0.0000 C   0  0  0  0  0  0  0  0  0  0  0  0
   -0.4124   -0.7147    0.0000 C   0  0  0  0  0  0  0  0  0  0  0  0
    0.4124   -0.7147    0.0000 C   0  0  0  0  0  0  0  0  0  0  0  0
    0.8251    0.0008    0.0000 C   0  0  0  0  0  0  0  0  0  0  0  0
    0.4124    0.7147    0.0000 C   0  0  0  0  0  0  0  0  0  0  0  0
   -0.4124    0.7147    0.0000 C   0  0  0  0  0  0  0  0  0  0  0  0
    1.6505    0.0008    0.0000 C   0  0  0  0  0  0  0  0  0  0  0  0
    2.0633    0.7147    0.0000 C   0  0  0  0  0  0  0  0  0  0  0  0
    2.0633   -0.7147    0.0000 C   0  0  0  0  0  0  0  0  0  0  0  0
   -4.5382   -0.7147    0.0000 O   0  0  0  0  0  0  0  0  0  0  0  0
   -4.5382    0.7147    0.0000 O   0  0  0  0  0  0  0  0  0  0  0  0
    2.8888   -0.7147    0.0000 C   0  0  0  0  0  0  0  0  0  0  0  0
    3.3016    0.0008    0.0000 C   0  0  0  0  0  0  0  0  0  0  0  0
    2.8888    0.7147    0.0000 C   0  0  0  0  0  0  0  0  0  0  0  0
    4.1262    0.0008    0.0000 C   0  0  0  0  0  0  0  0  0  0  0  0
    4.5382    0.7147    0.0000 O   0  0  0  0  0  0  0  0  0  0  0  0
    4.5382   -0.7140    0.0000 O   0  0  0  0  0  0  0  0  0  0  0  0
  1  2  2  0
  2  3  1  0
  3  4  2  0
  4  5  1  0
  5  6  2  0
  6  1  1  0
  3  7  1  0
  6  8  1  0
  7  9  2  0
  9 10  1  0
 10 11  2  0
 11 12  1  0
 12 13  2  0
 13  7  1  0
 11 14  1  0
 14 15  2  0
 14 16  1  0
  8 17  1  0
  8 18  2  0
 16 19  2  0
 19 20  1  0
 20 21  2  0
 21 15  1  0
 20 22  1  0
 22 23  1  0
 22 24  2  0
M  END
>  <Name>  (31) 
L-31

$$$$
monoMOF-ligands.sdf
     RDKit          2D

 24 26  0  0  0  0  0  0  0  0999 V2000
   -2.8867   -0.7146    0.0000 C   0  0  0  0  0  0  0  0  0  0  0  0
   -2.0617   -0.7146    0.0000 C   0  0  0  0  0  0  0  0  0  0  0  0
   -1.6492    0.0004    0.0000 C   0  0  0  0  0  0  0  0  0  0  0  0
   -2.0617    0.7146    0.0000 C   0  0  0  0  0  0  0  0  0  0  0  0
   -2.8867    0.7146    0.0000 C   0  0  0  0  0  0  0  0  0  0  0  0
   -3.2985    0.0004    0.0000 C   0  0  0  0  0  0  0  0  0  0  0  0
   -0.8242    0.0004    0.0000 C   0  0  0  0  0  0  0  0  0  0  0  0
   -4.1235    0.0004    0.0000 C   0  0  0  0  0  0  0  0  0  0  0  0
   -0.4117   -0.7146    0.0000 C   0  0  0  0  0  0  0  0  0  0  0  0
    0.4125   -0.7146    0.0000 C   0  0  0  0  0  0  0  0  0  0  0  0
    0.8250    0.0004    0.0000 C   0  0  0  0  0  0  0  0  0  0  0  0
    0.4125    0.7146    0.0000 C   0  0  0  0  0  0  0  0  0  0  0  0
   -0.4117    0.7146    0.0000 N   0  0  0  0  0  0  0  0  0  0  0  0
    1.6492    0.0004    0.0000 C   0  0  0  0  0  0  0  0  0  0  0  0
    2.0617    0.7146    0.0000 C   0  0  0  0  0  0  0  0  0  0  0  0
    2.0617   -0.7146    0.0000 C   0  0  0  0  0  0  0  0  0  0  0  0
   -4.5360   -0.7146    0.0000 O   0  0  0  0  0  0  0  0  0  0  0  0
   -4.5360    0.7146    0.0000 O   0  0  0  0  0  0  0  0  0  0  0  0
    2.8867   -0.7146    0.0000 C   0  0  0  0  0  0  0  0  0  0  0  0
    3.2992    0.0004    0.0000 C   0  0  0  0  0  0  0  0  0  0  0  0
    2.8867    0.7146    0.0000 C   0  0  0  0  0  0  0  0  0  0  0  0
    4.1242    0.0004    0.0000 C   0  0  0  0  0  0  0  0  0  0  0  0
    4.5360    0.7146    0.0000 O   0  0  0  0  0  0  0  0  0  0  0  0
    4.5360   -0.7139    0.0000 O   0  0  0  0  0  0  0  0  0  0  0  0
  1  2  2  0
  2  3  1  0
  3  4  2  0
  4  5  1  0
  5  6  2  0
  6  1  1  0
  3  7  1  0
  6  8  1  0
  7  9  2  0
  9 10  1  0
 10 11  2  0
 11 12  1  0
 12 13  2  0
 13  7  1  0
 11 14  1  0
 14 15  2  0
 14 16  1  0
  8 17  1  0
  8 18  2  0
 16 19  2  0
 19 20  1  0
 20 21  2  0
 21 15  1  0
 20 22  1  0
 22 23  1  0
 22 24  2  0
M  END
>  <Name>  (32) 
L-32

$$$$
monoMOF-ligands.sdf
     RDKit          2D

 25 27  0  0  0  0  0  0  0  0999 V2000
   -2.8871   -1.0712    0.0000 C   0  0  0  0  0  0  0  0  0  0  0  0
   -2.0621   -1.0712    0.0000 C   0  0  0  0  0  0  0  0  0  0  0  0
   -1.6495   -0.3568    0.0000 C   0  0  0  0  0  0  0  0  0  0  0  0
   -2.0621    0.3568    0.0000 C   0  0  0  0  0  0  0  0  0  0  0  0
   -2.8871    0.3568    0.0000 C   0  0  0  0  0  0  0  0  0  0  0  0
   -3.2990   -0.3568    0.0000 C   0  0  0  0  0  0  0  0  0  0  0  0
   -0.8251   -0.3568    0.0000 C   0  0  0  0  0  0  0  0  0  0  0  0
   -4.1241   -0.3568    0.0000 C   0  0  0  0  0  0  0  0  0  0  0  0
   -0.4126   -1.0712    0.0000 C   0  0  0  0  0  0  0  0  0  0  0  0
    0.4118   -1.0712    0.0000 C   0  0  0  0  0  0  0  0  0  0  0  0
    0.8243   -0.3568    0.0000 C   0  0  0  0  0  0  0  0  0  0  0  0
    0.4118    0.3568    0.0000 C   0  0  0  0  0  0  0  0  0  0  0  0
   -0.4126    0.3568    0.0000 C   0  0  0  0  0  0  0  0  0  0  0  0
    1.6495   -0.3568    0.0000 C   0  0  0  0  0  0  0  0  0  0  0  0
    2.0621    0.3568    0.0000 C   0  0  0  0  0  0  0  0  0  0  0  0
    2.0621   -1.0712    0.0000 C   0  0  0  0  0  0  0  0  0  0  0  0
   -4.5367   -1.0712    0.0000 O   0  0  0  0  0  0  0  0  0  0  0  0
   -4.5367    0.3568    0.0000 O   0  0  0  0  0  0  0  0  0  0  0  0
    2.8871   -1.0712    0.0000 C   0  0  0  0  0  0  0  0  0  0  0  0
    3.2997   -0.3568    0.0000 C   0  0  0  0  0  0  0  0  0  0  0  0
    2.8871    0.3568    0.0000 C   0  0  0  0  0  0  0  0  0  0  0  0
    4.1248   -0.3568    0.0000 C   0  0  0  0  0  0  0  0  0  0  0  0
    4.5367    0.3568    0.0000 O   0  0  0  0  0  0  0  0  0  0  0  0
    4.5367   -1.0704    0.0000 O   0  0  0  0  0  0  0  0  0  0  0  0
   -0.8251    1.0712    0.0000 C   0  0  0  0  0  0  0  0  0  0  0  0
  1  2  2  0
  2  3  1  0
  3  4  2  0
  4  5  1  0
  5  6  2  0
  6  1  1  0
  3  7  1  0
  6  8  1  0
  7  9  2  0
  9 10  1  0
 10 11  2  0
 11 12  1  0
 12 13  2  0
 13  7  1  0
 11 14  1  0
 14 15  2  0
 14 16  1  0
  8 17  1  0
  8 18  2  0
 16 19  2  0
 19 20  1  0
 20 21  2  0
 21 15  1  0
 20 22  1  0
 22 23  1  0
 22 24  2  0
 13 25  1  0
M  END
>  <Name>  (33) 
L-33

$$$$
monoMOF-ligands.sdf
     RDKit          2D

 28 30  0  1  0  0  0  0  0  0999 V2000
   -2.8868   -1.4270    0.0000 C   0  0  0  0  0  0  0  0  0  0  0  0
   -2.0623   -1.4270    0.0000 C   0  0  0  0  0  0  0  0  0  0  0  0
   -1.6497   -0.7125    0.0000 C   0  0  0  0  0  0  0  0  0  0  0  0
   -2.0623    0.0019    0.0000 C   0  0  0  0  0  0  0  0  0  0  0  0
   -2.8868    0.0019    0.0000 C   0  0  0  0  0  0  0  0  0  0  0  0
   -3.2994   -0.7125    0.0000 C   0  0  0  0  0  0  0  0  0  0  0  0
   -0.8244   -0.7125    0.0000 C   0  0  0  0  0  0  0  0  0  0  0  0
   -4.1249   -0.7125    0.0000 C   0  0  0  0  0  0  0  0  0  0  0  0
   -0.4118   -1.4270    0.0000 C   0  0  0  0  0  0  0  0  0  0  0  0
    0.4126   -1.4270    0.0000 C   0  0  0  0  0  0  0  0  0  0  0  0
    0.8252   -0.7125    0.0000 C   0  0  0  0  0  0  0  0  0  0  0  0
    0.4126    0.0019    0.0000 C   0  0  0  0  0  0  0  0  0  0  0  0
   -0.4118    0.0019    0.0000 C   0  0  0  0  0  0  0  0  0  0  0  0
    1.6497   -0.7125    0.0000 C   0  0  0  0  0  0  0  0  0  0  0  0
    2.0623    0.0019    0.0000 C   0  0  0  0  0  0  0  0  0  0  0  0
    2.0623   -1.4270    0.0000 C   0  0  0  0  0  0  0  0  0  0  0  0
   -4.5375   -1.4270    0.0000 O   0  0  0  0  0  0  0  0  0  0  0  0
   -4.5375    0.0019    0.0000 O   0  0  0  0  0  0  0  0  0  0  0  0
    2.8875   -1.4270    0.0000 C   0  0  0  0  0  0  0  0  0  0  0  0
    3.3001   -0.7125    0.0000 C   0  0  0  0  0  0  0  0  0  0  0  0
    2.8875    0.0019    0.0000 C   0  0  0  0  0  0  0  0  0  0  0  0
    4.1256   -0.7125    0.0000 C   0  0  0  0  0  0  0  0  0  0  0  0
    4.5375    0.0019    0.0000 O   0  0  0  0  0  0  0  0  0  0  0  0
    4.5375   -1.4270    0.0000 O   0  0  0  0  0  0  0  0  0  0  0  0
   -0.8244    0.7156    0.0000 C   0  0  0  0  0  0  0  0  0  0  0  0
   -0.1131    1.1267    0.0000 F   0  0  0  0  0  0  0  0  0  0  0  0
   -1.2348    1.4270    0.0000 F   0  0  0  0  0  0  0  0  0  0  0  0
   -1.5358    0.3060    0.0000 F   0  0  0  0  0  0  0  0  0  0  0  0
 25 26  1  0
 25 27  1  0
 25 28  1  0
 13 25  1  0
  1  2  2  0
  2  3  1  0
  3  4  2  0
  4  5  1  0
  5  6  2  0
  6  1  1  0
  3  7  1  0
  6  8  1  0
  7  9  2  0
  9 10  1  0
 10 11  2  0
 11 12  1  0
 12 13  2  0
 13  7  1  0
 11 14  1  0
 14 15  2  0
 14 16  1  0
  8 17  1  0
  8 18  2  0
 16 19  2  0
 19 20  1  0
 20 21  2  0
 21 15  1  0
 20 22  1  0
 22 23  1  0
 22 24  2  0
M  STY  1   1 SUP
M  SLB  1   1   1
M  SAL   1  4  25  26  27  28
M  SBL   1  1   4
M  SMT   1 CF3
M  SBV   1   4    0.4126   -0.7137
M  END
>  <Name>  (34) 
L-34

$$$$
monoMOF-ligands.sdf
     RDKit          2D

 25 27  0  0  0  0  0  0  0  0999 V2000
   -2.8872   -1.0717    0.0000 C   0  0  0  0  0  0  0  0  0  0  0  0
   -2.0627   -1.0717    0.0000 C   0  0  0  0  0  0  0  0  0  0  0  0
   -1.6501   -0.3572    0.0000 C   0  0  0  0  0  0  0  0  0  0  0  0
   -2.0627    0.3572    0.0000 C   0  0  0  0  0  0  0  0  0  0  0  0
   -2.8872    0.3572    0.0000 C   0  0  0  0  0  0  0  0  0  0  0  0
   -3.2990   -0.3572    0.0000 C   0  0  0  0  0  0  0  0  0  0  0  0
   -0.8248   -0.3572    0.0000 C   0  0  0  0  0  0  0  0  0  0  0  0
   -4.1245   -0.3572    0.0000 C   0  0  0  0  0  0  0  0  0  0  0  0
   -0.4122   -1.0717    0.0000 C   0  0  0  0  0  0  0  0  0  0  0  0
    0.4122   -1.0717    0.0000 C   0  0  0  0  0  0  0  0  0  0  0  0
    0.8248   -0.3572    0.0000 C   0  0  0  0  0  0  0  0  0  0  0  0
    0.4122    0.3572    0.0000 C   0  0  0  0  0  0  0  0  0  0  0  0
   -0.4122    0.3572    0.0000 C   0  0  0  0  0  0  0  0  0  0  0  0
    1.6501   -0.3572    0.0000 C   0  0  0  0  0  0  0  0  0  0  0  0
    2.0627    0.3572    0.0000 C   0  0  0  0  0  0  0  0  0  0  0  0
    2.0627   -1.0717    0.0000 C   0  0  0  0  0  0  0  0  0  0  0  0
   -4.5371   -1.0717    0.0000 O   0  0  0  0  0  0  0  0  0  0  0  0
   -4.5371    0.3572    0.0000 O   0  0  0  0  0  0  0  0  0  0  0  0
    2.8879   -1.0717    0.0000 C   0  0  0  0  0  0  0  0  0  0  0  0
    3.3005   -0.3572    0.0000 C   0  0  0  0  0  0  0  0  0  0  0  0
    2.8879    0.3572    0.0000 C   0  0  0  0  0  0  0  0  0  0  0  0
    4.1253   -0.3572    0.0000 C   0  0  0  0  0  0  0  0  0  0  0  0
    4.5371    0.3572    0.0000 O   0  0  0  0  0  0  0  0  0  0  0  0
    4.5371   -1.0717    0.0000 O   0  0  0  0  0  0  0  0  0  0  0  0
   -0.8248    1.0717    0.0000 N   0  0  0  0  0  0  0  0  0  0  0  0
  1  2  2  0
  2  3  1  0
  3  4  2  0
  4  5  1  0
  5  6  2  0
  6  1  1  0
  3  7  1  0
  6  8  1  0
  7  9  2  0
  9 10  1  0
 10 11  2  0
 11 12  1  0
 12 13  2  0
 13  7  1  0
 11 14  1  0
 14 15  2  0
 14 16  1  0
  8 17  1  0
  8 18  2  0
 16 19  2  0
 19 20  1  0
 20 21  2  0
 21 15  1  0
 20 22  1  0
 22 23  1  0
 22 24  2  0
 13 25  1  0
M  END
>  <Name>  (35) 
L-35

$$$$
monoMOF-ligands.sdf
     RDKit          2D

 26 28  0  1  0  0  0  0  0  0999 V2000
   -2.8884   -1.0718    0.0000 C   0  0  0  0  0  0  0  0  0  0  0  0
   -2.0635   -1.0718    0.0000 C   0  0  0  0  0  0  0  0  0  0  0  0
   -1.6507   -0.3578    0.0000 C   0  0  0  0  0  0  0  0  0  0  0  0
   -2.0635    0.3570    0.0000 C   0  0  0  0  0  0  0  0  0  0  0  0
   -2.8884    0.3570    0.0000 C   0  0  0  0  0  0  0  0  0  0  0  0
   -3.3004   -0.3578    0.0000 C   0  0  0  0  0  0  0  0  0  0  0  0
   -0.8252   -0.3578    0.0000 C   0  0  0  0  0  0  0  0  0  0  0  0
   -4.1259   -0.3578    0.0000 C   0  0  0  0  0  0  0  0  0  0  0  0
   -0.4124   -1.0718    0.0000 C   0  0  0  0  0  0  0  0  0  0  0  0
    0.4124   -1.0718    0.0000 C   0  0  0  0  0  0  0  0  0  0  0  0
    0.8252   -0.3578    0.0000 C   0  0  0  0  0  0  0  0  0  0  0  0
    0.4124    0.3570    0.0000 C   0  0  0  0  0  0  0  0  0  0  0  0
   -0.4124    0.3570    0.0000 C   0  0  0  0  0  0  0  0  0  0  0  0
    1.6507   -0.3578    0.0000 C   0  0  0  0  0  0  0  0  0  0  0  0
    2.0635    0.3570    0.0000 C   0  0  0  0  0  0  0  0  0  0  0  0
    2.0635   -1.0718    0.0000 C   0  0  0  0  0  0  0  0  0  0  0  0
   -4.5387   -1.0718    0.0000 O   0  0  0  0  0  0  0  0  0  0  0  0
   -4.5387    0.3570    0.0000 O   0  0  0  0  0  0  0  0  0  0  0  0
    2.8891   -1.0718    0.0000 C   0  0  0  0  0  0  0  0  0  0  0  0
    3.3019   -0.3578    0.0000 C   0  0  0  0  0  0  0  0  0  0  0  0
    2.8891    0.3570    0.0000 C   0  0  0  0  0  0  0  0  0  0  0  0
    4.1267   -0.3578    0.0000 C   0  0  0  0  0  0  0  0  0  0  0  0
    4.5387    0.3570    0.0000 O   0  0  0  0  0  0  0  0  0  0  0  0
    4.5387   -1.0718    0.0000 O   0  0  0  0  0  0  0  0  0  0  0  0
   -0.8252    1.0718    0.0000 O   0  0  0  0  0  0  0  0  0  0  0  0
   -1.6469    1.0718    0.0000 C   0  0  0  0  0  0  0  0  0  0  0  0
 25 26  1  0
 13 25  1  0
  1  2  2  0
  2  3  1  0
  3  4  2  0
  4  5  1  0
  5  6  2  0
  6  1  1  0
  3  7  1  0
  6  8  1  0
  7  9  2  0
  9 10  1  0
 10 11  2  0
 11 12  1  0
 12 13  2  0
 13  7  1  0
 11 14  1  0
 14 15  2  0
 14 16  1  0
  8 17  1  0
  8 18  2  0
 16 19  2  0
 19 20  1  0
 20 21  2  0
 21 15  1  0
 20 22  1  0
 22 23  1  0
 22 24  2  0
M  STY  1   1 SUP
M  SLB  1   1   1
M  SAL   1  2  25  26
M  SBL   1  1   2
M  SMT   1 OMe
M  SBV   1   2    0.4128   -0.7148
M  END
>  <Name>  (36) 
L-36

$$$$
monoMOF-ligands.sdf
     RDKit          2D

 27 29  0  1  0  0  0  0  0  0999 V2000
    2.8874    0.3565    0.0000 C   0  0  0  0  0  0  0  0  0  0  0  0
    2.0623    0.3565    0.0000 C   0  0  0  0  0  0  0  0  0  0  0  0
    1.6499   -0.3580    0.0000 C   0  0  0  0  0  0  0  0  0  0  0  0
    2.0623   -1.0716    0.0000 C   0  0  0  0  0  0  0  0  0  0  0  0
    2.8874   -1.0716    0.0000 C   0  0  0  0  0  0  0  0  0  0  0  0
    3.2985   -0.3580    0.0000 C   0  0  0  0  0  0  0  0  0  0  0  0
    0.8247   -0.3580    0.0000 C   0  0  0  0  0  0  0  0  0  0  0  0
    4.1236   -0.3580    0.0000 C   0  0  0  0  0  0  0  0  0  0  0  0
    0.4122    0.3565    0.0000 C   0  0  0  0  0  0  0  0  0  0  0  0
   -0.4122    0.3565    0.0000 C   0  0  0  0  0  0  0  0  0  0  0  0
   -0.8247   -0.3580    0.0000 C   0  0  0  0  0  0  0  0  0  0  0  0
   -0.4122   -1.0716    0.0000 C   0  0  0  0  0  0  0  0  0  0  0  0
    0.4122   -1.0716    0.0000 C   0  0  0  0  0  0  0  0  0  0  0  0
   -1.6499   -0.3580    0.0000 C   0  0  0  0  0  0  0  0  0  0  0  0
   -2.0623   -1.0716    0.0000 C   0  0  0  0  0  0  0  0  0  0  0  0
   -2.0623    0.3565    0.0000 C   0  0  0  0  0  0  0  0  0  0  0  0
    4.5362    0.3565    0.0000 O   0  0  0  0  0  0  0  0  0  0  0  0
    4.5362   -1.0716    0.0000 O   0  0  0  0  0  0  0  0  0  0  0  0
   -2.8874    0.3565    0.0000 C   0  0  0  0  0  0  0  0  0  0  0  0
   -3.3000   -0.3580    0.0000 C   0  0  0  0  0  0  0  0  0  0  0  0
   -2.8874   -1.0716    0.0000 C   0  0  0  0  0  0  0  0  0  0  0  0
   -4.1244   -0.3580    0.0000 C   0  0  0  0  0  0  0  0  0  0  0  0
   -4.5362   -1.0716    0.0000 O   0  0  0  0  0  0  0  0  0  0  0  0
   -4.5362    0.3557    0.0000 O   0  0  0  0  0  0  0  0  0  0  0  0
   -0.8247    1.0716    0.0000 N   0  0  0  0  0  0  0  0  0  0  0  0
   -1.6461    1.0708    0.0000 N   0  0  0  0  0  0  0  0  0  0  0  0
   -2.4672    1.0708    0.0000 N   0  0  0  0  0  0  0  0  0  0  0  0
 26 27  2  0
 25 26  2  0
 10 25  1  0
  1  2  2  0
  2  3  1  0
  3  4  2  0
  4  5  1  0
  5  6  2  0
  6  1  1  0
  3  7  1  0
  6  8  1  0
  9 10  2  0
 11 12  2  0
 13  7  2  0
 11 14  1  0
 14 15  2  0
 14 16  1  0
  8 17  1  0
  8 18  2  0
 16 19  2  0
 19 20  1  0
 20 21  2  0
 21 15  1  0
 20 22  1  0
 22 23  1  0
 22 24  2  0
 13 12  1  0
 11 10  1  0
  7  9  1  0
M  CHG  2  26   1  27  -1
M  STY  1   1 SUP
M  SLB  1   1   1
M  SAL   1  3  25  26  27
M  SBL   1  1   3
M  SMT   1 N3
M  SBV   1   3    0.4125   -0.7151
M  END
>  <Name>  (37) 
L-37

$$$$
monoMOF-ligands.sdf
     RDKit          2D

 26 28  0  0  0  0  0  0  0  0999 V2000
   -2.8872   -0.7144    0.0000 C   0  0  0  0  0  0  0  0  0  0  0  0
   -2.0627   -0.7144    0.0000 C   0  0  0  0  0  0  0  0  0  0  0  0
   -1.6501    0.0008    0.0000 C   0  0  0  0  0  0  0  0  0  0  0  0
   -2.0627    0.7152    0.0000 C   0  0  0  0  0  0  0  0  0  0  0  0
   -2.8872    0.7152    0.0000 C   0  0  0  0  0  0  0  0  0  0  0  0
   -3.2990    0.0008    0.0000 C   0  0  0  0  0  0  0  0  0  0  0  0
   -0.8248    0.0008    0.0000 C   0  0  0  0  0  0  0  0  0  0  0  0
   -4.1245    0.0008    0.0000 C   0  0  0  0  0  0  0  0  0  0  0  0
   -0.4122   -0.7144    0.0000 C   0  0  0  0  0  0  0  0  0  0  0  0
    0.4122   -0.7144    0.0000 C   0  0  0  0  0  0  0  0  0  0  0  0
    0.8248    0.0008    0.0000 C   0  0  0  0  0  0  0  0  0  0  0  0
    0.4122    0.7152    0.0000 C   0  0  0  0  0  0  0  0  0  0  0  0
   -0.4122    0.7152    0.0000 C   0  0  0  0  0  0  0  0  0  0  0  0
    1.6501    0.0008    0.0000 C   0  0  0  0  0  0  0  0  0  0  0  0
    2.0627    0.7152    0.0000 C   0  0  0  0  0  0  0  0  0  0  0  0
    2.0627   -0.7144    0.0000 C   0  0  0  0  0  0  0  0  0  0  0  0
   -4.5371   -0.7144    0.0000 O   0  0  0  0  0  0  0  0  0  0  0  0
   -4.5371    0.7152    0.0000 O   0  0  0  0  0  0  0  0  0  0  0  0
    2.8879   -0.7144    0.0000 C   0  0  0  0  0  0  0  0  0  0  0  0
    3.3005    0.0008    0.0000 C   0  0  0  0  0  0  0  0  0  0  0  0
    2.8879    0.7152    0.0000 C   0  0  0  0  0  0  0  0  0  0  0  0
    4.1253    0.0008    0.0000 C   0  0  0  0  0  0  0  0  0  0  0  0
    4.5371    0.7152    0.0000 O   0  0  0  0  0  0  0  0  0  0  0  0
    4.5371   -0.7137    0.0000 O   0  0  0  0  0  0  0  0  0  0  0  0
   -0.8248    1.4289    0.0000 C   0  0  0  0  0  0  0  0  0  0  0  0
    0.8248   -1.4289    0.0000 C   0  0  0  0  0  0  0  0  0  0  0  0
  1  2  2  0
  2  3  1  0
  3  4  2  0
  4  5  1  0
  5  6  2  0
  6  1  1  0
  3  7  1  0
  6  8  1  0
  7  9  2  0
  9 10  1  0
 10 11  2  0
 11 12  1  0
 12 13  2  0
 13  7  1  0
 11 14  1  0
 14 15  2  0
 14 16  1  0
  8 17  1  0
  8 18  2  0
 16 19  2  0
 19 20  1  0
 20 21  2  0
 21 15  1  0
 20 22  1  0
 22 23  1  0
 22 24  2  0
 13 25  1  0
 10 26  1  0
M  END
>  <Name>  (38) 
L-38

$$$$
monoMOF-ligands.sdf
     RDKit          2D

 32 34  0  2  0  0  0  0  0  0999 V2000
   -2.8888   -0.7138    0.0000 C   0  0  0  0  0  0  0  0  0  0  0  0
   -2.0637   -0.7138    0.0000 C   0  0  0  0  0  0  0  0  0  0  0  0
   -1.6508    0.0011    0.0000 C   0  0  0  0  0  0  0  0  0  0  0  0
   -2.0637    0.7153    0.0000 C   0  0  0  0  0  0  0  0  0  0  0  0
   -2.8888    0.7153    0.0000 C   0  0  0  0  0  0  0  0  0  0  0  0
   -3.3017    0.0011    0.0000 C   0  0  0  0  0  0  0  0  0  0  0  0
   -0.8250    0.0011    0.0000 C   0  0  0  0  0  0  0  0  0  0  0  0
   -4.1275    0.0011    0.0000 C   0  0  0  0  0  0  0  0  0  0  0  0
   -0.4121   -0.7138    0.0000 C   0  0  0  0  0  0  0  0  0  0  0  0
    0.4129   -0.7138    0.0000 C   0  0  0  0  0  0  0  0  0  0  0  0
    0.8258    0.0011    0.0000 C   0  0  0  0  0  0  0  0  0  0  0  0
    0.4129    0.7153    0.0000 C   0  0  0  0  0  0  0  0  0  0  0  0
   -0.4121    0.7153    0.0000 C   0  0  0  0  0  0  0  0  0  0  0  0
    1.6508    0.0011    0.0000 C   0  0  0  0  0  0  0  0  0  0  0  0
    2.0637    0.7153    0.0000 C   0  0  0  0  0  0  0  0  0  0  0  0
    2.0637   -0.7138    0.0000 C   0  0  0  0  0  0  0  0  0  0  0  0
   -4.5404   -0.7138    0.0000 O   0  0  0  0  0  0  0  0  0  0  0  0
   -4.5404    0.7153    0.0000 O   0  0  0  0  0  0  0  0  0  0  0  0
    2.8895   -0.7138    0.0000 C   0  0  0  0  0  0  0  0  0  0  0  0
    3.3024    0.0011    0.0000 C   0  0  0  0  0  0  0  0  0  0  0  0
    2.8895    0.7153    0.0000 C   0  0  0  0  0  0  0  0  0  0  0  0
    4.1282    0.0011    0.0000 C   0  0  0  0  0  0  0  0  0  0  0  0
    4.5404    0.7153    0.0000 O   0  0  0  0  0  0  0  0  0  0  0  0
    4.5404   -0.7138    0.0000 O   0  0  0  0  0  0  0  0  0  0  0  0
   -0.8250    1.4295    0.0000 C   0  0  0  0  0  0  0  0  0  0  0  0
   -0.1132    1.8409    0.0000 F   0  0  0  0  0  0  0  0  0  0  0  0
   -1.2356    2.1414    0.0000 F   0  0  0  0  0  0  0  0  0  0  0  0
   -1.5369    1.0196    0.0000 F   0  0  0  0  0  0  0  0  0  0  0  0
    0.8258   -1.4295    0.0000 C   0  0  0  0  0  0  0  0  0  0  0  0
    0.1147   -1.8401    0.0000 F   0  0  0  0  0  0  0  0  0  0  0  0
    1.2356   -2.1414    0.0000 F   0  0  0  0  0  0  0  0  0  0  0  0
    1.5369   -1.0181    0.0000 F   0  0  0  0  0  0  0  0  0  0  0  0
 25 26  1  0
 25 27  1  0
 25 28  1  0
 13 25  1  0
 29 30  1  0
 29 31  1  0
 29 32  1  0
 10 29  1  0
  1  2  2  0
  2  3  1  0
  3  4  2  0
  4  5  1  0
  5  6  2  0
  6  1  1  0
  3  7  1  0
  6  8  1  0
  7  9  2  0
  9 10  1  0
 10 11  2  0
 11 12  1  0
 12 13  2  0
 13  7  1  0
 11 14  1  0
 14 15  2  0
 14 16  1  0
  8 17  1  0
  8 18  2  0
 16 19  2  0
 19 20  1  0
 20 21  2  0
 21 15  1  0
 20 22  1  0
 22 23  1  0
 22 24  2  0
M  STY  2   1 SUP   2 SUP
M  SLB  2   1   1   2   2
M  SAL   1  4  25  26  27  28
M  SBL   1  1   4
M  SMT   1 CF3
M  SBV   1   4    0.4129   -0.7142
M  SAL   2  4  29  30  31  32
M  SBL   2  1   8
M  SMT   2 CF3
M  SBV   2   8   -0.4129    0.7157
M  END
>  <Name>  (39) 
L-39

$$$$
monoMOF-ligands.sdf
     RDKit          2D

 28 30  0  2  0  0  0  0  0  0999 V2000
   -2.8875   -0.7141    0.0000 C   0  0  0  0  0  0  0  0  0  0  0  0
   -2.0623   -0.7141    0.0000 C   0  0  0  0  0  0  0  0  0  0  0  0
   -1.6497    0.0011    0.0000 C   0  0  0  0  0  0  0  0  0  0  0  0
   -2.0623    0.7148    0.0000 C   0  0  0  0  0  0  0  0  0  0  0  0
   -2.8875    0.7148    0.0000 C   0  0  0  0  0  0  0  0  0  0  0  0
   -3.2994    0.0011    0.0000 C   0  0  0  0  0  0  0  0  0  0  0  0
   -0.8252    0.0011    0.0000 C   0  0  0  0  0  0  0  0  0  0  0  0
   -4.1249    0.0011    0.0000 C   0  0  0  0  0  0  0  0  0  0  0  0
   -0.4126   -0.7141    0.0000 C   0  0  0  0  0  0  0  0  0  0  0  0
    0.4118   -0.7141    0.0000 C   0  0  0  0  0  0  0  0  0  0  0  0
    0.8244    0.0011    0.0000 C   0  0  0  0  0  0  0  0  0  0  0  0
    0.4118    0.7148    0.0000 C   0  0  0  0  0  0  0  0  0  0  0  0
   -0.4126    0.7148    0.0000 C   0  0  0  0  0  0  0  0  0  0  0  0
    1.6497    0.0011    0.0000 C   0  0  0  0  0  0  0  0  0  0  0  0
    2.0623    0.7148    0.0000 C   0  0  0  0  0  0  0  0  0  0  0  0
    2.0623   -0.7141    0.0000 C   0  0  0  0  0  0  0  0  0  0  0  0
   -4.5375   -0.7141    0.0000 O   0  0  0  0  0  0  0  0  0  0  0  0
   -4.5375    0.7148    0.0000 O   0  0  0  0  0  0  0  0  0  0  0  0
    2.8875   -0.7141    0.0000 C   0  0  0  0  0  0  0  0  0  0  0  0
    3.3001    0.0011    0.0000 C   0  0  0  0  0  0  0  0  0  0  0  0
    2.8875    0.7148    0.0000 C   0  0  0  0  0  0  0  0  0  0  0  0
    4.1256    0.0011    0.0000 C   0  0  0  0  0  0  0  0  0  0  0  0
    4.5375    0.7148    0.0000 O   0  0  0  0  0  0  0  0  0  0  0  0
    4.5375   -0.7133    0.0000 O   0  0  0  0  0  0  0  0  0  0  0  0
   -0.8252    1.4285    0.0000 O   0  0  0  0  0  0  0  0  0  0  0  0
   -1.6459    1.4285    0.0000 C   0  0  0  0  0  0  0  0  0  0  0  0
    0.8244   -1.4285    0.0000 O   0  0  0  0  0  0  0  0  0  0  0  0
    1.6459   -1.4285    0.0000 C   0  0  0  0  0  0  0  0  0  0  0  0
 25 26  1  0
 13 25  1  0
 27 28  1  0
 10 27  1  0
  1  2  2  0
  2  3  1  0
  3  4  2  0
  4  5  1  0
  5  6  2  0
  6  1  1  0
  3  7  1  0
  6  8  1  0
  7  9  2  0
  9 10  1  0
 10 11  2  0
 11 12  1  0
 12 13  2  0
 13  7  1  0
 11 14  1  0
 14 15  2  0
 14 16  1  0
  8 17  1  0
  8 18  2  0
 16 19  2  0
 19 20  1  0
 20 21  2  0
 21 15  1  0
 20 22  1  0
 22 23  1  0
 22 24  2  0
M  STY  2   1 SUP   2 SUP
M  SLB  2   1   1   2   2
M  SAL   1  2  25  26
M  SBL   1  1   2
M  SMT   1 OMe
M  SBV   1   2    0.4126   -0.7137
M  SAL   2  2  27  28
M  SBL   2  1   4
M  SMT   2 OMe
M  SBV   2   4   -0.4126    0.7144
M  END
>  <Name>  (40) 
L-40

$$$$
monoMOF-ligands.sdf
     RDKit          2D

 28 30  0  0  0  0  0  0  0  0999 V2000
   -2.8883   -0.7144    0.0000 C   0  0  0  0  0  0  0  0  0  0  0  0
   -2.0631   -0.7144    0.0000 C   0  0  0  0  0  0  0  0  0  0  0  0
   -1.6505    0.0000    0.0000 C   0  0  0  0  0  0  0  0  0  0  0  0
   -2.0631    0.7144    0.0000 C   0  0  0  0  0  0  0  0  0  0  0  0
   -2.8883    0.7144    0.0000 C   0  0  0  0  0  0  0  0  0  0  0  0
   -3.2994    0.0000    0.0000 C   0  0  0  0  0  0  0  0  0  0  0  0
   -0.8252    0.0000    0.0000 C   0  0  0  0  0  0  0  0  0  0  0  0
   -4.1241    0.0000    0.0000 C   0  0  0  0  0  0  0  0  0  0  0  0
   -0.4126   -0.7144    0.0000 C   0  0  0  0  0  0  0  0  0  0  0  0
    0.4126   -0.7144    0.0000 C   0  0  0  0  0  0  0  0  0  0  0  0
    0.8252    0.0000    0.0000 C   0  0  0  0  0  0  0  0  0  0  0  0
    0.4126    0.7144    0.0000 C   0  0  0  0  0  0  0  0  0  0  0  0
   -0.4126    0.7144    0.0000 C   0  0  0  0  0  0  0  0  0  0  0  0
    1.6505    0.0000    0.0000 C   0  0  0  0  0  0  0  0  0  0  0  0
    2.0631    0.7144    0.0000 C   0  0  0  0  0  0  0  0  0  0  0  0
    2.0631   -0.7144    0.0000 C   0  0  0  0  0  0  0  0  0  0  0  0
   -4.5367   -0.7144    0.0000 O   0  0  0  0  0  0  0  0  0  0  0  0
   -4.5367    0.7144    0.0000 O   0  0  0  0  0  0  0  0  0  0  0  0
    2.8883   -0.7144    0.0000 C   0  0  0  0  0  0  0  0  0  0  0  0
    3.3009    0.0000    0.0000 C   0  0  0  0  0  0  0  0  0  0  0  0
    2.8883    0.7144    0.0000 C   0  0  0  0  0  0  0  0  0  0  0  0
    4.1249    0.0000    0.0000 C   0  0  0  0  0  0  0  0  0  0  0  0
    4.5367    0.7144    0.0000 O   0  0  0  0  0  0  0  0  0  0  0  0
    4.5367   -0.7144    0.0000 O   0  0  0  0  0  0  0  0  0  0  0  0
   -0.8252    1.4289    0.0000 C   0  0  0  0  0  0  0  0  0  0  0  0
    0.8252   -1.4289    0.0000 C   0  0  0  0  0  0  0  0  0  0  0  0
   -1.2379    2.1433    0.0000 C   0  0  0  0  0  0  0  0  0  0  0  0
    1.2379   -2.1433    0.0000 C   0  0  0  0  0  0  0  0  0  0  0  0
  1  2  2  0
  2  3  1  0
  3  4  2  0
  4  5  1  0
  5  6  2  0
  6  1  1  0
  3  7  1  0
  6  8  1  0
  7  9  2  0
  9 10  1  0
 10 11  2  0
 11 12  1  0
 12 13  2  0
 13  7  1  0
 11 14  1  0
 14 15  2  0
 14 16  1  0
  8 17  1  0
  8 18  2  0
 16 19  2  0
 19 20  1  0
 20 21  2  0
 21 15  1  0
 20 22  1  0
 22 23  1  0
 22 24  2  0
 13 25  1  0
 10 26  1  0
 25 27  3  0
 26 28  3  0
M  END
>  <Name>  (41) 
L-41

$$$$
monoMOF-ligands.sdf
     RDKit          2D

 26 28  0  0  0  0  0  0  0  0999 V2000
   -2.8860   -0.7142    0.0000 C   0  0  0  0  0  0  0  0  0  0  0  0
   -2.0617   -0.7142    0.0000 C   0  0  0  0  0  0  0  0  0  0  0  0
   -1.6492    0.0008    0.0000 C   0  0  0  0  0  0  0  0  0  0  0  0
   -2.0617    0.7150    0.0000 C   0  0  0  0  0  0  0  0  0  0  0  0
   -2.8860    0.7150    0.0000 C   0  0  0  0  0  0  0  0  0  0  0  0
   -3.2985    0.0008    0.0000 C   0  0  0  0  0  0  0  0  0  0  0  0
   -0.8250    0.0008    0.0000 C   0  0  0  0  0  0  0  0  0  0  0  0
   -4.1235    0.0008    0.0000 C   0  0  0  0  0  0  0  0  0  0  0  0
   -0.4125   -0.7142    0.0000 C   0  0  0  0  0  0  0  0  0  0  0  0
    0.4125   -0.7142    0.0000 C   0  0  0  0  0  0  0  0  0  0  0  0
    0.8250    0.0008    0.0000 C   0  0  0  0  0  0  0  0  0  0  0  0
    0.4125    0.7150    0.0000 C   0  0  0  0  0  0  0  0  0  0  0  0
   -0.4125    0.7150    0.0000 C   0  0  0  0  0  0  0  0  0  0  0  0
    1.6500    0.0008    0.0000 C   0  0  0  0  0  0  0  0  0  0  0  0
    2.0617    0.7150    0.0000 C   0  0  0  0  0  0  0  0  0  0  0  0
    2.0617   -0.7142    0.0000 C   0  0  0  0  0  0  0  0  0  0  0  0
   -4.5360   -0.7142    0.0000 O   0  0  0  0  0  0  0  0  0  0  0  0
   -4.5360    0.7150    0.0000 O   0  0  0  0  0  0  0  0  0  0  0  0
    2.8867   -0.7142    0.0000 C   0  0  0  0  0  0  0  0  0  0  0  0
    3.2992    0.0008    0.0000 C   0  0  0  0  0  0  0  0  0  0  0  0
    2.8867    0.7150    0.0000 C   0  0  0  0  0  0  0  0  0  0  0  0
    4.1242    0.0008    0.0000 C   0  0  0  0  0  0  0  0  0  0  0  0
    4.5360    0.7150    0.0000 O   0  0  0  0  0  0  0  0  0  0  0  0
    4.5360   -0.7135    0.0000 O   0  0  0  0  0  0  0  0  0  0  0  0
   -0.8250    1.4285    0.0000 F   0  0  0  0  0  0  0  0  0  0  0  0
    0.8250   -1.4285    0.0000 F   0  0  0  0  0  0  0  0  0  0  0  0
  1  2  2  0
  2  3  1  0
  3  4  2  0
  4  5  1  0
  5  6  2  0
  6  1  1  0
  3  7  1  0
  6  8  1  0
  7  9  2  0
  9 10  1  0
 10 11  2  0
 11 12  1  0
 12 13  2  0
 13  7  1  0
 11 14  1  0
 14 15  2  0
 14 16  1  0
  8 17  1  0
  8 18  2  0
 16 19  2  0
 19 20  1  0
 20 21  2  0
 21 15  1  0
 20 22  1  0
 22 23  1  0
 22 24  2  0
 13 25  1  0
 10 26  1  0
M  END
>  <Name>  (42) 
L-42

$$$$
monoMOF-ligands.sdf
     RDKit          2D

 26 28  0  0  0  0  0  0  0  0999 V2000
   -2.8867   -0.7146    0.0000 C   0  0  0  0  0  0  0  0  0  0  0  0
   -2.0617   -0.7146    0.0000 C   0  0  0  0  0  0  0  0  0  0  0  0
   -1.6492    0.0004    0.0000 C   0  0  0  0  0  0  0  0  0  0  0  0
   -2.0617    0.7146    0.0000 C   0  0  0  0  0  0  0  0  0  0  0  0
   -2.8867    0.7146    0.0000 C   0  0  0  0  0  0  0  0  0  0  0  0
   -3.2985    0.0004    0.0000 C   0  0  0  0  0  0  0  0  0  0  0  0
   -0.8242    0.0004    0.0000 C   0  0  0  0  0  0  0  0  0  0  0  0
   -4.1235    0.0004    0.0000 C   0  0  0  0  0  0  0  0  0  0  0  0
   -0.4117   -0.7146    0.0000 C   0  0  0  0  0  0  0  0  0  0  0  0
    0.4133   -0.7146    0.0000 C   0  0  0  0  0  0  0  0  0  0  0  0
    0.8258    0.0004    0.0000 C   0  0  0  0  0  0  0  0  0  0  0  0
    0.4133    0.7146    0.0000 C   0  0  0  0  0  0  0  0  0  0  0  0
   -0.4117    0.7146    0.0000 C   0  0  0  0  0  0  0  0  0  0  0  0
    1.6500    0.0004    0.0000 C   0  0  0  0  0  0  0  0  0  0  0  0
    2.0617    0.7146    0.0000 C   0  0  0  0  0  0  0  0  0  0  0  0
    2.0617   -0.7146    0.0000 C   0  0  0  0  0  0  0  0  0  0  0  0
   -4.5360   -0.7146    0.0000 O   0  0  0  0  0  0  0  0  0  0  0  0
   -4.5360    0.7146    0.0000 O   0  0  0  0  0  0  0  0  0  0  0  0
    2.8867   -0.7146    0.0000 C   0  0  0  0  0  0  0  0  0  0  0  0
    3.2992    0.0004    0.0000 C   0  0  0  0  0  0  0  0  0  0  0  0
    2.8867    0.7146    0.0000 C   0  0  0  0  0  0  0  0  0  0  0  0
    4.1242    0.0004    0.0000 C   0  0  0  0  0  0  0  0  0  0  0  0
    4.5360    0.7146    0.0000 O   0  0  0  0  0  0  0  0  0  0  0  0
    4.5360   -0.7139    0.0000 O   0  0  0  0  0  0  0  0  0  0  0  0
   -0.8242    1.4289    0.0000 O   0  0  0  0  0  0  0  0  0  0  0  0
    0.8258   -1.4289    0.0000 O   0  0  0  0  0  0  0  0  0  0  0  0
  1  2  2  0
  2  3  1  0
  3  4  2  0
  4  5  1  0
  5  6  2  0
  6  1  1  0
  3  7  1  0
  6  8  1  0
  7  9  2  0
  9 10  1  0
 10 11  2  0
 11 12  1  0
 12 13  2  0
 13  7  1  0
 11 14  1  0
 14 15  2  0
 14 16  1  0
  8 17  1  0
  8 18  2  0
 16 19  2  0
 19 20  1  0
 20 21  2  0
 21 15  1  0
 20 22  1  0
 22 23  1  0
 22 24  2  0
 13 25  1  0
 10 26  1  0
M  END
>  <Name>  (43) 
L-43

$$$$
monoMOF-ligands.sdf
     RDKit          2D

 26 28  0  0  0  0  0  0  0  0999 V2000
   -2.8867   -0.7142    0.0000 C   0  0  0  0  0  0  0  0  0  0  0  0
   -2.0617   -0.7142    0.0000 C   0  0  0  0  0  0  0  0  0  0  0  0
   -1.6492    0.0008    0.0000 C   0  0  0  0  0  0  0  0  0  0  0  0
   -2.0617    0.7150    0.0000 C   0  0  0  0  0  0  0  0  0  0  0  0
   -2.8867    0.7150    0.0000 C   0  0  0  0  0  0  0  0  0  0  0  0
   -3.2985    0.0008    0.0000 C   0  0  0  0  0  0  0  0  0  0  0  0
   -0.8242    0.0008    0.0000 C   0  0  0  0  0  0  0  0  0  0  0  0
   -4.1235    0.0008    0.0000 C   0  0  0  0  0  0  0  0  0  0  0  0
   -0.4117   -0.7142    0.0000 C   0  0  0  0  0  0  0  0  0  0  0  0
    0.4133   -0.7142    0.0000 C   0  0  0  0  0  0  0  0  0  0  0  0
    0.8258    0.0008    0.0000 C   0  0  0  0  0  0  0  0  0  0  0  0
    0.4133    0.7150    0.0000 C   0  0  0  0  0  0  0  0  0  0  0  0
   -0.4117    0.7150    0.0000 C   0  0  0  0  0  0  0  0  0  0  0  0
    1.6500    0.0008    0.0000 C   0  0  0  0  0  0  0  0  0  0  0  0
    2.0617    0.7150    0.0000 C   0  0  0  0  0  0  0  0  0  0  0  0
    2.0617   -0.7142    0.0000 C   0  0  0  0  0  0  0  0  0  0  0  0
   -4.5360   -0.7142    0.0000 O   0  0  0  0  0  0  0  0  0  0  0  0
   -4.5360    0.7150    0.0000 O   0  0  0  0  0  0  0  0  0  0  0  0
    2.8867   -0.7142    0.0000 C   0  0  0  0  0  0  0  0  0  0  0  0
    3.2992    0.0008    0.0000 C   0  0  0  0  0  0  0  0  0  0  0  0
    2.8867    0.7150    0.0000 C   0  0  0  0  0  0  0  0  0  0  0  0
    4.1242    0.0008    0.0000 C   0  0  0  0  0  0  0  0  0  0  0  0
    4.5360    0.7150    0.0000 O   0  0  0  0  0  0  0  0  0  0  0  0
    4.5360   -0.7135    0.0000 O   0  0  0  0  0  0  0  0  0  0  0  0
   -3.2985    1.4285    0.0000 N   0  0  0  0  0  0  0  0  0  0  0  0
    3.2992   -1.4285    0.0000 N   0  0  0  0  0  0  0  0  0  0  0  0
  1  2  2  0
  2  3  1  0
  3  4  2  0
  4  5  1  0
  5  6  2  0
  6  1  1  0
  3  7  1  0
  6  8  1  0
  7  9  2  0
  9 10  1  0
 10 11  2  0
 11 12  1  0
 12 13  2  0
 13  7  1  0
 11 14  1  0
 14 15  2  0
 14 16  1  0
  8 17  1  0
  8 18  2  0
 16 19  2  0
 19 20  1  0
 20 21  2  0
 21 15  1  0
 20 22  1  0
 22 23  1  0
 22 24  2  0
  5 25  1  0
 19 26  1  0
M  END
>  <Name>  (44) 
L-44

$$$$
monoMOF-ligands.sdf
     RDKit          2D

 26 28  0  0  0  0  0  0  0  0999 V2000
   -2.8867   -0.7142    0.0000 C   0  0  0  0  0  0  0  0  0  0  0  0
   -2.0617   -0.7142    0.0000 C   0  0  0  0  0  0  0  0  0  0  0  0
   -1.6492    0.0008    0.0000 C   0  0  0  0  0  0  0  0  0  0  0  0
   -2.0617    0.7150    0.0000 C   0  0  0  0  0  0  0  0  0  0  0  0
   -2.8867    0.7150    0.0000 C   0  0  0  0  0  0  0  0  0  0  0  0
   -3.2985    0.0008    0.0000 C   0  0  0  0  0  0  0  0  0  0  0  0
   -0.8242    0.0008    0.0000 C   0  0  0  0  0  0  0  0  0  0  0  0
   -4.1235    0.0008    0.0000 C   0  0  0  0  0  0  0  0  0  0  0  0
   -0.4117   -0.7142    0.0000 C   0  0  0  0  0  0  0  0  0  0  0  0
    0.4133   -0.7142    0.0000 C   0  0  0  0  0  0  0  0  0  0  0  0
    0.8258    0.0008    0.0000 C   0  0  0  0  0  0  0  0  0  0  0  0
    0.4133    0.7150    0.0000 C   0  0  0  0  0  0  0  0  0  0  0  0
   -0.4117    0.7150    0.0000 C   0  0  0  0  0  0  0  0  0  0  0  0
    1.6500    0.0008    0.0000 C   0  0  0  0  0  0  0  0  0  0  0  0
    2.0617    0.7150    0.0000 C   0  0  0  0  0  0  0  0  0  0  0  0
    2.0617   -0.7142    0.0000 C   0  0  0  0  0  0  0  0  0  0  0  0
   -4.5360   -0.7142    0.0000 O   0  0  0  0  0  0  0  0  0  0  0  0
   -4.5360    0.7150    0.0000 O   0  0  0  0  0  0  0  0  0  0  0  0
    2.8867   -0.7142    0.0000 C   0  0  0  0  0  0  0  0  0  0  0  0
    3.2992    0.0008    0.0000 C   0  0  0  0  0  0  0  0  0  0  0  0
    2.8867    0.7150    0.0000 C   0  0  0  0  0  0  0  0  0  0  0  0
    4.1242    0.0008    0.0000 C   0  0  0  0  0  0  0  0  0  0  0  0
    4.5360    0.7150    0.0000 O   0  0  0  0  0  0  0  0  0  0  0  0
    4.5360   -0.7135    0.0000 O   0  0  0  0  0  0  0  0  0  0  0  0
   -3.2985    1.4285    0.0000 O   0  0  0  0  0  0  0  0  0  0  0  0
    3.2992   -1.4285    0.0000 O   0  0  0  0  0  0  0  0  0  0  0  0
  1  2  2  0
  2  3  1  0
  3  4  2  0
  4  5  1  0
  5  6  2  0
  6  1  1  0
  3  7  1  0
  6  8  1  0
  7  9  2  0
  9 10  1  0
 10 11  2  0
 11 12  1  0
 12 13  2  0
 13  7  1  0
 11 14  1  0
 14 15  2  0
 14 16  1  0
  8 17  1  0
  8 18  2  0
 16 19  2  0
 19 20  1  0
 20 21  2  0
 21 15  1  0
 20 22  1  0
 22 23  1  0
 22 24  2  0
  5 25  1  0
 19 26  1  0
M  END
>  <Name>  (45) 
L-45

$$$$
monoMOF-ligands.sdf
     RDKit          2D

 28 30  0  0  0  0  0  0  0  0999 V2000
   -2.8872   -0.7136    0.0000 C   0  0  0  0  0  0  0  0  0  0  0  0
   -2.0621   -0.7136    0.0000 C   0  0  0  0  0  0  0  0  0  0  0  0
   -1.6495    0.0008    0.0000 C   0  0  0  0  0  0  0  0  0  0  0  0
   -2.0621    0.7143    0.0000 C   0  0  0  0  0  0  0  0  0  0  0  0
   -2.8872    0.7143    0.0000 C   0  0  0  0  0  0  0  0  0  0  0  0
   -3.2991    0.0008    0.0000 C   0  0  0  0  0  0  0  0  0  0  0  0
   -0.8251    0.0008    0.0000 C   0  0  0  0  0  0  0  0  0  0  0  0
   -4.1244    0.0008    0.0000 C   0  0  0  0  0  0  0  0  0  0  0  0
   -0.4126   -0.7136    0.0000 C   0  0  0  0  0  0  0  0  0  0  0  0
    0.4126   -0.7136    0.0000 C   0  0  0  0  0  0  0  0  0  0  0  0
    0.8251    0.0008    0.0000 C   0  0  0  0  0  0  0  0  0  0  0  0
    0.4126    0.7143    0.0000 C   0  0  0  0  0  0  0  0  0  0  0  0
   -0.4126    0.7143    0.0000 C   0  0  0  0  0  0  0  0  0  0  0  0
    1.6503    0.0008    0.0000 C   0  0  0  0  0  0  0  0  0  0  0  0
    2.0621    0.7143    0.0000 C   0  0  0  0  0  0  0  0  0  0  0  0
    2.0621   -0.7136    0.0000 C   0  0  0  0  0  0  0  0  0  0  0  0
   -4.5370   -0.7136    0.0000 O   0  0  0  0  0  0  0  0  0  0  0  0
   -4.5370    0.7143    0.0000 O   0  0  0  0  0  0  0  0  0  0  0  0
    2.8872   -0.7136    0.0000 C   0  0  0  0  0  0  0  0  0  0  0  0
    3.2998    0.0008    0.0000 C   0  0  0  0  0  0  0  0  0  0  0  0
    2.8872    0.7143    0.0000 C   0  0  0  0  0  0  0  0  0  0  0  0
    4.1251    0.0008    0.0000 C   0  0  0  0  0  0  0  0  0  0  0  0
    4.5370    0.7143    0.0000 O   0  0  0  0  0  0  0  0  0  0  0  0
    4.5370   -0.7136    0.0000 O   0  0  0  0  0  0  0  0  0  0  0  0
   -0.8251    1.4288    0.0000 C   0  0  0  0  0  0  0  0  0  0  0  0
    0.8251   -1.4288    0.0000 C   0  0  0  0  0  0  0  0  0  0  0  0
    0.8251    1.4288    0.0000 C   0  0  0  0  0  0  0  0  0  0  0  0
   -0.8251   -1.4288    0.0000 C   0  0  0  0  0  0  0  0  0  0  0  0
  1  2  2  0
  2  3  1  0
  3  4  2  0
  4  5  1  0
  5  6  2  0
  6  1  1  0
  3  7  1  0
  6  8  1  0
  7  9  2  0
  9 10  1  0
 10 11  2  0
 11 12  1  0
 12 13  2  0
 13  7  1  0
 11 14  1  0
 14 15  2  0
 14 16  1  0
  8 17  1  0
  8 18  2  0
 16 19  2  0
 19 20  1  0
 20 21  2  0
 21 15  1  0
 20 22  1  0
 22 23  1  0
 22 24  2  0
 13 25  1  0
 10 26  1  0
 12 27  1  0
  9 28  1  0
M  END
>  <Name>  (46) 
L-46

$$$$
monoMOF-ligands.sdf
     RDKit          2D

 27 30  0  0  0  0  0  0  0  0999 V2000
    2.8871    0.0794    0.0000 C   0  0  0  0  0  0  0  0  0  0  0  0
    2.0621    0.0794    0.0000 C   0  0  0  0  0  0  0  0  0  0  0  0
    1.6504   -0.6356    0.0000 C   0  0  0  0  0  0  0  0  0  0  0  0
    2.0621   -1.3483    0.0000 C   0  0  0  0  0  0  0  0  0  0  0  0
    2.8871   -1.3483    0.0000 C   0  0  0  0  0  0  0  0  0  0  0  0
    3.2981   -0.6356    0.0000 C   0  0  0  0  0  0  0  0  0  0  0  0
    0.8254   -0.6356    0.0000 C   0  0  0  0  0  0  0  0  0  0  0  0
    4.1231   -0.6356    0.0000 C   0  0  0  0  0  0  0  0  0  0  0  0
    0.4129    0.0794    0.0000 C   0  0  0  0  0  0  0  0  0  0  0  0
   -0.4121    0.0794    0.0000 C   0  0  0  0  0  0  0  0  0  0  0  0
   -0.8246   -0.6356    0.0000 C   0  0  0  0  0  0  0  0  0  0  0  0
   -0.4121   -1.3483    0.0000 C   0  0  0  0  0  0  0  0  0  0  0  0
    0.4129   -1.3483    0.0000 C   0  0  0  0  0  0  0  0  0  0  0  0
   -1.6496   -0.6356    0.0000 C   0  0  0  0  0  0  0  0  0  0  0  0
   -2.0621   -1.3483    0.0000 C   0  0  0  0  0  0  0  0  0  0  0  0
   -2.0621    0.0794    0.0000 C   0  0  0  0  0  0  0  0  0  0  0  0
    4.5356    0.0794    0.0000 O   0  0  0  0  0  0  0  0  0  0  0  0
    4.5356   -1.3483    0.0000 O   0  0  0  0  0  0  0  0  0  0  0  0
   -2.8871    0.0794    0.0000 C   0  0  0  0  0  0  0  0  0  0  0  0
   -3.2996   -0.6356    0.0000 C   0  0  0  0  0  0  0  0  0  0  0  0
   -2.8871   -1.3483    0.0000 C   0  0  0  0  0  0  0  0  0  0  0  0
   -4.1239   -0.6356    0.0000 C   0  0  0  0  0  0  0  0  0  0  0  0
   -4.5356   -1.3483    0.0000 O   0  0  0  0  0  0  0  0  0  0  0  0
   -4.5356    0.0787    0.0000 O   0  0  0  0  0  0  0  0  0  0  0  0
    0.6680    0.8640    0.0000 N   0  0  0  0  0  0  0  0  0  0  0  0
    0.0004    1.3483    0.0000 S   0  0  0  0  0  0  0  0  0  0  0  0
   -0.6673    0.8640    0.0000 N   0  0  0  0  0  0  0  0  0  0  0  0
  1  2  2  0
  2  3  1  0
  3  4  2  0
  4  5  1  0
  5  6  2  0
  6  1  1  0
  3  7  1  0
  6  8  1  0
  9 10  1  0
 11 12  2  0
 13  7  2  0
 11 14  1  0
 14 15  2  0
 14 16  1  0
  8 17  1  0
  8 18  2  0
 16 19  2  0
 19 20  1  0
 20 21  2  0
 21 15  1  0
 20 22  1  0
 22 23  1  0
 22 24  2  0
  9 25  2  0
 25 26  1  0
 26 27  1  0
 27 10  2  0
 13 12  1  0
 11 10  1  0
  7  9  1  0
M  END
>  <Name>  (47) 
L-47

$$$$
monoMOF-ligands.sdf
     RDKit          2D

 26 28  0  0  0  0  0  0  0  0999 V2000
   -2.8868   -1.0716    0.0000 C   0  0  0  0  0  0  0  0  0  0  0  0
   -2.0625   -1.0716    0.0000 C   0  0  0  0  0  0  0  0  0  0  0  0
   -1.6499   -0.3572    0.0000 C   0  0  0  0  0  0  0  0  0  0  0  0
   -2.0625    0.3572    0.0000 C   0  0  0  0  0  0  0  0  0  0  0  0
   -2.8868    0.3572    0.0000 C   0  0  0  0  0  0  0  0  0  0  0  0
   -3.2986   -0.3572    0.0000 C   0  0  0  0  0  0  0  0  0  0  0  0
   -0.8247   -0.3572    0.0000 C   0  0  0  0  0  0  0  0  0  0  0  0
   -4.1237   -0.3572    0.0000 C   0  0  0  0  0  0  0  0  0  0  0  0
   -0.4122   -1.0716    0.0000 C   0  0  0  0  0  0  0  0  0  0  0  0
    0.4130   -1.0716    0.0000 C   0  0  0  0  0  0  0  0  0  0  0  0
    0.8255   -0.3572    0.0000 C   0  0  0  0  0  0  0  0  0  0  0  0
    0.4130    0.3572    0.0000 C   0  0  0  0  0  0  0  0  0  0  0  0
   -0.4122    0.3572    0.0000 C   0  0  0  0  0  0  0  0  0  0  0  0
    1.6506   -0.3572    0.0000 C   0  0  0  0  0  0  0  0  0  0  0  0
    2.0625    0.3572    0.0000 C   0  0  0  0  0  0  0  0  0  0  0  0
    2.0625   -1.0716    0.0000 C   0  0  0  0  0  0  0  0  0  0  0  0
   -4.5363   -1.0716    0.0000 O   0  0  0  0  0  0  0  0  0  0  0  0
   -4.5363    0.3572    0.0000 O   0  0  0  0  0  0  0  0  0  0  0  0
    2.8875   -1.0716    0.0000 C   0  0  0  0  0  0  0  0  0  0  0  0
    3.3001   -0.3572    0.0000 C   0  0  0  0  0  0  0  0  0  0  0  0
    2.8875    0.3572    0.0000 C   0  0  0  0  0  0  0  0  0  0  0  0
    4.1245   -0.3572    0.0000 C   0  0  0  0  0  0  0  0  0  0  0  0
    4.5363    0.3572    0.0000 O   0  0  0  0  0  0  0  0  0  0  0  0
    4.5363   -1.0716    0.0000 O   0  0  0  0  0  0  0  0  0  0  0  0
   -0.8247    1.0716    0.0000 N   0  0  0  0  0  0  0  0  0  0  0  0
    0.8255    1.0716    0.0000 N   0  0  0  0  0  0  0  0  0  0  0  0
  1  2  2  0
  2  3  1  0
  3  4  2  0
  4  5  1  0
  5  6  2  0
  6  1  1  0
  3  7  1  0
  6  8  1  0
  7  9  2  0
  9 10  1  0
 10 11  2  0
 11 12  1  0
 12 13  2  0
 13  7  1  0
 11 14  1  0
 14 15  2  0
 14 16  1  0
  8 17  1  0
  8 18  2  0
 16 19  2  0
 19 20  1  0
 20 21  2  0
 21 15  1  0
 20 22  1  0
 22 23  1  0
 22 24  2  0
 13 25  1  0
 12 26  1  0
M  END
>  <Name>  (48) 
L-48

$$$$
monoMOF-ligands.sdf
     RDKit          2D

 32 36  0  0  0  0  0  0  0  0999 V2000
   -2.8875   -0.7136    0.0000 C   0  0  0  0  0  0  0  0  0  0  0  0
   -2.0625   -0.7136    0.0000 C   0  0  0  0  0  0  0  0  0  0  0  0
   -1.6499    0.0008    0.0000 C   0  0  0  0  0  0  0  0  0  0  0  0
   -2.0625    0.7151    0.0000 C   0  0  0  0  0  0  0  0  0  0  0  0
   -2.8875    0.7151    0.0000 C   0  0  0  0  0  0  0  0  0  0  0  0
   -3.2986    0.0008    0.0000 C   0  0  0  0  0  0  0  0  0  0  0  0
   -0.8247    0.0008    0.0000 C   0  0  0  0  0  0  0  0  0  0  0  0
   -4.1237    0.0008    0.0000 C   0  0  0  0  0  0  0  0  0  0  0  0
   -0.4122   -0.7136    0.0000 C   0  0  0  0  0  0  0  0  0  0  0  0
    0.4130   -0.7136    0.0000 C   0  0  0  0  0  0  0  0  0  0  0  0
    0.8255    0.0008    0.0000 C   0  0  0  0  0  0  0  0  0  0  0  0
    0.4130    0.7151    0.0000 C   0  0  0  0  0  0  0  0  0  0  0  0
   -0.4122    0.7151    0.0000 C   0  0  0  0  0  0  0  0  0  0  0  0
    1.6506    0.0008    0.0000 C   0  0  0  0  0  0  0  0  0  0  0  0
    2.0625    0.7151    0.0000 C   0  0  0  0  0  0  0  0  0  0  0  0
    2.0625   -0.7136    0.0000 C   0  0  0  0  0  0  0  0  0  0  0  0
   -4.5363   -0.7136    0.0000 O   0  0  0  0  0  0  0  0  0  0  0  0
   -4.5363    0.7151    0.0000 O   0  0  0  0  0  0  0  0  0  0  0  0
    2.8875   -0.7136    0.0000 C   0  0  0  0  0  0  0  0  0  0  0  0
    3.3001    0.0008    0.0000 C   0  0  0  0  0  0  0  0  0  0  0  0
    2.8875    0.7151    0.0000 C   0  0  0  0  0  0  0  0  0  0  0  0
    4.1245    0.0008    0.0000 C   0  0  0  0  0  0  0  0  0  0  0  0
    4.5363    0.7151    0.0000 O   0  0  0  0  0  0  0  0  0  0  0  0
    4.5363   -0.7136    0.0000 O   0  0  0  0  0  0  0  0  0  0  0  0
   -0.8247    1.4288    0.0000 C   0  0  0  0  0  0  0  0  0  0  0  0
    0.8255   -1.4288    0.0000 C   0  0  0  0  0  0  0  0  0  0  0  0
   -0.8247   -1.4288    0.0000 C   0  0  0  0  0  0  0  0  0  0  0  0
   -0.4122   -2.1431    0.0000 C   0  0  0  0  0  0  0  0  0  0  0  0
    0.4130   -2.1431    0.0000 C   0  0  0  0  0  0  0  0  0  0  0  0
    0.8255    1.4288    0.0000 C   0  0  0  0  0  0  0  0  0  0  0  0
    0.4130    2.1431    0.0000 C   0  0  0  0  0  0  0  0  0  0  0  0
   -0.4122    2.1431    0.0000 C   0  0  0  0  0  0  0  0  0  0  0  0
  1  2  2  0
  2  3  1  0
  3  4  2  0
  4  5  1  0
  5  6  2  0
  6  1  1  0
  3  7  1  0
  6  8  1  0
  7  9  2  0
  9 10  1  0
 10 11  2  0
 11 12  1  0
 12 13  1  0
 13  7  1  0
 11 14  1  0
 14 15  2  0
 14 16  1  0
  8 17  1  0
  8 18  2  0
 16 19  2  0
 19 20  1  0
 20 21  2  0
 21 15  1  0
 20 22  1  0
 22 23  1  0
 22 24  2  0
 13 25  2  0
 10 26  1  0
  9 27  1  0
 27 28  2  0
 28 29  1  0
 29 26  2  0
 12 30  2  0
 30 31  1  0
 31 32  2  0
 32 25  1  0
M  END
>  <Name>  (49) 
L-49

$$$$
monoMOF-ligands.sdf
     RDKit          2D

 26 29  0  0  0  0  0  0  0  0999 V2000
   -2.8872   -0.3568    0.0000 C   0  0  0  0  0  0  0  0  0  0  0  0
   -2.0627   -0.3568    0.0000 C   0  0  0  0  0  0  0  0  0  0  0  0
   -1.6501    0.3576    0.0000 C   0  0  0  0  0  0  0  0  0  0  0  0
   -2.0627    1.0720    0.0000 C   0  0  0  0  0  0  0  0  0  0  0  0
   -2.8872    1.0720    0.0000 C   0  0  0  0  0  0  0  0  0  0  0  0
   -3.2990    0.3576    0.0000 C   0  0  0  0  0  0  0  0  0  0  0  0
   -4.1245    0.3576    0.0000 C   0  0  0  0  0  0  0  0  0  0  0  0
    1.6501    0.3576    0.0000 C   0  0  0  0  0  0  0  0  0  0  0  0
    2.0627    1.0720    0.0000 C   0  0  0  0  0  0  0  0  0  0  0  0
    2.0627   -0.3568    0.0000 C   0  0  0  0  0  0  0  0  0  0  0  0
   -4.5371   -0.3568    0.0000 O   0  0  0  0  0  0  0  0  0  0  0  0
   -4.5371    1.0720    0.0000 O   0  0  0  0  0  0  0  0  0  0  0  0
    2.8879   -0.3568    0.0000 C   0  0  0  0  0  0  0  0  0  0  0  0
    3.3005    0.3576    0.0000 C   0  0  0  0  0  0  0  0  0  0  0  0
    2.8879    1.0720    0.0000 C   0  0  0  0  0  0  0  0  0  0  0  0
    4.1253    0.3576    0.0000 C   0  0  0  0  0  0  0  0  0  0  0  0
    4.5371    1.0720    0.0000 O   0  0  0  0  0  0  0  0  0  0  0  0
    4.5371   -0.3568    0.0000 O   0  0  0  0  0  0  0  0  0  0  0  0
   -1.6501   -1.0713    0.0000 C   0  0  0  0  0  0  0  0  0  0  0  0
   -0.8256   -1.0713    0.0000 C   0  0  0  0  0  0  0  0  0  0  0  0
   -0.4130   -0.3568    0.0000 C   0  0  0  0  0  0  0  0  0  0  0  0
   -0.8256    0.3576    0.0000 C   0  0  0  0  0  0  0  0  0  0  0  0
    0.8248    0.3576    0.0000 C   0  0  0  0  0  0  0  0  0  0  0  0
    0.4122   -0.3576    0.0000 C   0  0  0  0  0  0  0  0  0  0  0  0
    0.8248   -1.0720    0.0000 C   0  0  0  0  0  0  0  0  0  0  0  0
    1.6501   -1.0720    0.0000 C   0  0  0  0  0  0  0  0  0  0  0  0
  1  2  2  0
  2  3  1  0
  3  4  2  0
  4  5  1  0
  5  6  2  0
  6  1  1  0
  6  7  1  0
  8  9  2  0
  8 10  1  0
  7 11  1  0
  7 12  2  0
 10 13  2  0
 13 14  1  0
 14 15  2  0
 15  9  1  0
 14 16  1  0
 16 17  1  0
 16 18  2  0
  2 19  1  0
 19 20  2  0
 20 21  1  0
 21 22  2  0
 22  3  1  0
  8 23  1  0
 23 24  2  0
 24 25  1  0
 25 26  2  0
 26 10  1  0
 21 24  1  0
M  END
>  <Name>  (50) 
L-50

$$$$
monoMOF-ligands.sdf
     RDKit          2D

 28 31  0  0  0  0  0  0  0  0999 V2000
   -0.4122    1.4288    0.0000 C   0  0  0  0  0  0  0  0  0  0  0  0
    0.4122    1.4288    0.0000 C   0  0  0  0  0  0  0  0  0  0  0  0
    0.8247    0.7143    0.0000 C   0  0  0  0  0  0  0  0  0  0  0  0
   -0.8247    0.7143    0.0000 C   0  0  0  0  0  0  0  0  0  0  0  0
   -4.5362   -0.0008    0.0000 O   0  0  0  0  0  0  0  0  0  0  0  0
   -4.5362   -1.4288    0.0000 O   0  0  0  0  0  0  0  0  0  0  0  0
   -4.1244   -0.7143    0.0000 C   0  0  0  0  0  0  0  0  0  0  0  0
   -2.8874   -1.4288    0.0000 C   0  0  0  0  0  0  0  0  0  0  0  0
   -3.3000   -0.7143    0.0000 C   0  0  0  0  0  0  0  0  0  0  0  0
   -2.8874   -0.0008    0.0000 C   0  0  0  0  0  0  0  0  0  0  0  0
    4.5362   -1.4288    0.0000 O   0  0  0  0  0  0  0  0  0  0  0  0
    4.5362   -0.0008    0.0000 O   0  0  0  0  0  0  0  0  0  0  0  0
   -2.0623   -0.0008    0.0000 C   0  0  0  0  0  0  0  0  0  0  0  0
   -2.0623   -1.4288    0.0000 C   0  0  0  0  0  0  0  0  0  0  0  0
   -1.6499   -0.7143    0.0000 C   0  0  0  0  0  0  0  0  0  0  0  0
    0.4122   -1.4288    0.0000 C   0  0  0  0  0  0  0  0  0  0  0  0
   -0.4122   -1.4288    0.0000 C   0  0  0  0  0  0  0  0  0  0  0  0
   -0.8247   -0.7143    0.0000 C   0  0  0  0  0  0  0  0  0  0  0  0
   -0.4122   -0.0008    0.0000 C   0  0  0  0  0  0  0  0  0  0  0  0
    0.4122   -0.0008    0.0000 C   0  0  0  0  0  0  0  0  0  0  0  0
    4.1236   -0.7143    0.0000 C   0  0  0  0  0  0  0  0  0  0  0  0
    0.8247   -0.7143    0.0000 C   0  0  0  0  0  0  0  0  0  0  0  0
    3.2985   -0.7143    0.0000 C   0  0  0  0  0  0  0  0  0  0  0  0
    2.8874   -1.4288    0.0000 C   0  0  0  0  0  0  0  0  0  0  0  0
    2.0623   -1.4288    0.0000 C   0  0  0  0  0  0  0  0  0  0  0  0
    1.6499   -0.7143    0.0000 C   0  0  0  0  0  0  0  0  0  0  0  0
    2.0623   -0.0008    0.0000 C   0  0  0  0  0  0  0  0  0  0  0  0
    2.8874   -0.0008    0.0000 C   0  0  0  0  0  0  0  0  0  0  0  0
  1  4  2  0
  2  1  1  0
  3  2  2  0
 20  3  1  0
 19  4  1  0
  7  5  2  0
  7  6  1  0
  9  7  1  0
  8 14  2  0
  9  8  1  0
 10  9  2  0
 13 10  1  0
 21 11  2  0
 21 12  1  0
 15 13  2  0
 15 14  1  0
 18 15  1  0
 16 22  1  0
 17 16  2  0
 18 17  1  0
 19 18  2  0
 20 19  1  0
 22 20  2  0
 23 21  1  0
 26 22  1  0
 23 28  2  0
 24 23  1  0
 25 24  2  0
 26 25  1  0
 27 26  2  0
 28 27  1  0
M  END
>  <Name>  (51) 
L-51

$$$$
monoMOF-ligands.sdf
     RDKit          2D

 30 32  0  0  0  0  0  0  0  0999 V2000
   -2.8864   -1.4288    0.0000 C   0  0  0  0  0  0  0  0  0  0  0  0
   -2.0621   -1.4288    0.0000 C   0  0  0  0  0  0  0  0  0  0  0  0
   -1.6495   -0.7143    0.0000 C   0  0  0  0  0  0  0  0  0  0  0  0
   -2.0621   -0.0008    0.0000 C   0  0  0  0  0  0  0  0  0  0  0  0
   -2.8864   -0.0008    0.0000 C   0  0  0  0  0  0  0  0  0  0  0  0
   -3.2982   -0.7143    0.0000 C   0  0  0  0  0  0  0  0  0  0  0  0
   -0.8243   -0.7143    0.0000 C   0  0  0  0  0  0  0  0  0  0  0  0
   -4.1233   -0.7143    0.0000 C   0  0  0  0  0  0  0  0  0  0  0  0
   -0.4118   -1.4288    0.0000 C   0  0  0  0  0  0  0  0  0  0  0  0
    0.4134   -1.4288    0.0000 C   0  0  0  0  0  0  0  0  0  0  0  0
    0.8259   -0.7143    0.0000 C   0  0  0  0  0  0  0  0  0  0  0  0
    0.4134   -0.0008    0.0000 C   0  0  0  0  0  0  0  0  0  0  0  0
   -0.4118   -0.0008    0.0000 C   0  0  0  0  0  0  0  0  0  0  0  0
    1.6511   -0.7143    0.0000 C   0  0  0  0  0  0  0  0  0  0  0  0
    2.0629   -0.0008    0.0000 C   0  0  0  0  0  0  0  0  0  0  0  0
    2.0629   -1.4288    0.0000 C   0  0  0  0  0  0  0  0  0  0  0  0
   -4.5359   -1.4288    0.0000 O   0  0  0  0  0  0  0  0  0  0  0  0
   -4.5359   -0.0008    0.0000 O   0  0  0  0  0  0  0  0  0  0  0  0
    2.8871   -1.4288    0.0000 C   0  0  0  0  0  0  0  0  0  0  0  0
    3.2997   -0.7143    0.0000 C   0  0  0  0  0  0  0  0  0  0  0  0
    2.8871   -0.0008    0.0000 C   0  0  0  0  0  0  0  0  0  0  0  0
    4.1241   -0.7143    0.0000 C   0  0  0  0  0  0  0  0  0  0  0  0
    4.5359   -0.0008    0.0000 O   0  0  0  0  0  0  0  0  0  0  0  0
    4.5359   -1.4288    0.0000 O   0  0  0  0  0  0  0  0  0  0  0  0
   -0.8243    0.7136    0.0000 N   0  0  0  0  0  0  0  0  0  0  0  0
    0.8259    0.7136    0.0000 N   0  0  0  0  0  0  0  0  0  0  0  0
   -0.4118    1.4288    0.0000 C   0  0  0  0  0  0  0  0  0  0  0  0
   -1.6495    0.7136    0.0000 C   0  0  0  0  0  0  0  0  0  0  0  0
    0.4134    1.4288    0.0000 C   0  0  0  0  0  0  0  0  0  0  0  0
    1.6511    0.7136    0.0000 C   0  0  0  0  0  0  0  0  0  0  0  0
  1  2  2  0
  2  3  1  0
  3  4  2  0
  4  5  1  0
  5  6  2  0
  6  1  1  0
  3  7  1  0
  6  8  1  0
  7  9  2  0
  9 10  1  0
 10 11  2  0
 11 12  1  0
 12 13  2  0
 13  7  1  0
 11 14  1  0
 14 15  2  0
 14 16  1  0
  8 17  1  0
  8 18  2  0
 16 19  2  0
 19 20  1  0
 20 21  2  0
 21 15  1  0
 20 22  1  0
 22 23  1  0
 22 24  2  0
 13 25  1  0
 12 26  1  0
 25 27  1  0
 25 28  1  0
 26 29  1  0
 26 30  1  0
M  END
>  <Name>  (52) 
L-52

$$$$
monoMOF-ligands.sdf
     RDKit          2D

 24 26  0  0  0  0  0  0  0  0999 V2000
   -2.8886   -0.7144    0.0000 C   0  0  0  0  0  0  0  0  0  0  0  0
   -2.0637   -0.7144    0.0000 C   0  0  0  0  0  0  0  0  0  0  0  0
   -1.6509    0.0011    0.0000 C   0  0  0  0  0  0  0  0  0  0  0  0
   -2.0637    0.7144    0.0000 C   0  0  0  0  0  0  0  0  0  0  0  0
   -2.8886    0.7144    0.0000 C   0  0  0  0  0  0  0  0  0  0  0  0
   -3.3006    0.0011    0.0000 C   0  0  0  0  0  0  0  0  0  0  0  0
   -0.8252    0.0011    0.0000 C   0  0  0  0  0  0  0  0  0  0  0  0
   -4.1263    0.0011    0.0000 C   0  0  0  0  0  0  0  0  0  0  0  0
   -0.4124   -0.7144    0.0000 N   0  0  0  0  0  0  0  0  0  0  0  0
    0.4124   -0.7144    0.0000 N   0  0  0  0  0  0  0  0  0  0  0  0
    0.8252    0.0011    0.0000 C   0  0  0  0  0  0  0  0  0  0  0  0
    0.4124    0.7144    0.0000 N   0  0  0  0  0  0  0  0  0  0  0  0
   -0.4124    0.7144    0.0000 N   0  0  0  0  0  0  0  0  0  0  0  0
    1.6509    0.0011    0.0000 C   0  0  0  0  0  0  0  0  0  0  0  0
    2.0637    0.7144    0.0000 C   0  0  0  0  0  0  0  0  0  0  0  0
    2.0637   -0.7144    0.0000 C   0  0  0  0  0  0  0  0  0  0  0  0
   -4.5391   -0.7144    0.0000 O   0  0  0  0  0  0  0  0  0  0  0  0
   -4.5391    0.7144    0.0000 O   0  0  0  0  0  0  0  0  0  0  0  0
    2.8893   -0.7144    0.0000 C   0  0  0  0  0  0  0  0  0  0  0  0
    3.3021    0.0011    0.0000 C   0  0  0  0  0  0  0  0  0  0  0  0
    2.8893    0.7144    0.0000 C   0  0  0  0  0  0  0  0  0  0  0  0
    4.1271    0.0011    0.0000 C   0  0  0  0  0  0  0  0  0  0  0  0
    4.5391    0.7144    0.0000 O   0  0  0  0  0  0  0  0  0  0  0  0
    4.5391   -0.7136    0.0000 O   0  0  0  0  0  0  0  0  0  0  0  0
  1  2  2  0
  2  3  1  0
  3  4  2  0
  4  5  1  0
  5  6  2  0
  6  1  1  0
  3  7  1  0
  6  8  1  0
  7  9  2  0
  9 10  1  0
 10 11  2  0
 11 12  1  0
 12 13  2  0
 13  7  1  0
 11 14  1  0
 14 15  2  0
 14 16  1  0
  8 17  1  0
  8 18  2  0
 16 19  2  0
 19 20  1  0
 20 21  2  0
 21 15  1  0
 20 22  1  0
 22 23  1  0
 22 24  2  0
M  END
>  <Name>  (53) 
L-53

$$$$
monoMOF-ligands.sdf
     RDKit          2D

 26 28  0  1  0  0  0  0  0  0999 V2000
   -2.8872   -1.0717    0.0000 C   0  0  0  0  0  0  0  0  0  0  0  0
   -2.0627   -1.0717    0.0000 C   0  0  0  0  0  0  0  0  0  0  0  0
   -1.6501   -0.3572    0.0000 C   0  0  0  0  0  0  0  0  0  0  0  0
   -2.0627    0.3572    0.0000 C   0  0  0  0  0  0  0  0  0  0  0  0
   -2.8872    0.3572    0.0000 C   0  0  0  0  0  0  0  0  0  0  0  0
   -3.2990   -0.3572    0.0000 C   0  0  0  0  0  0  0  0  0  0  0  0
   -0.8248   -0.3572    0.0000 C   0  0  0  0  0  0  0  0  0  0  0  0
   -4.1245   -0.3572    0.0000 C   0  0  0  0  0  0  0  0  0  0  0  0
   -0.4122   -1.0717    0.0000 C   0  0  0  0  0  0  0  0  0  0  0  0
    0.4130   -1.0717    0.0000 C   0  0  0  0  0  0  0  0  0  0  0  0
    0.8256   -0.3572    0.0000 C   0  0  0  0  0  0  0  0  0  0  0  0
    0.4130    0.3572    0.0000 C   0  0  0  0  0  0  0  0  0  0  0  0
   -0.4122    0.3572    0.0000 C   0  0  0  0  0  0  0  0  0  0  0  0
    1.6509   -0.3572    0.0000 C   0  0  0  0  0  0  0  0  0  0  0  0
    2.0627    0.3572    0.0000 C   0  0  0  0  0  0  0  0  0  0  0  0
    2.0627   -1.0717    0.0000 C   0  0  0  0  0  0  0  0  0  0  0  0
   -4.5371   -1.0717    0.0000 O   0  0  0  0  0  0  0  0  0  0  0  0
   -4.5371    0.3572    0.0000 O   0  0  0  0  0  0  0  0  0  0  0  0
    2.8879   -1.0717    0.0000 C   0  0  0  0  0  0  0  0  0  0  0  0
    3.3005   -0.3572    0.0000 C   0  0  0  0  0  0  0  0  0  0  0  0
    2.8879    0.3572    0.0000 C   0  0  0  0  0  0  0  0  0  0  0  0
    4.1253   -0.3572    0.0000 C   0  0  0  0  0  0  0  0  0  0  0  0
    4.5371    0.3572    0.0000 O   0  0  0  0  0  0  0  0  0  0  0  0
    4.5371   -1.0717    0.0000 O   0  0  0  0  0  0  0  0  0  0  0  0
    0.8256    1.0717    0.0000 C   0  0  0  0  0  0  0  0  0  0  0  0
    1.6471    1.0717    0.0000 O   0  0  0  0  0  0  0  0  0  0  0  0
 25 26  2  0
 12 25  1  0
  1  2  2  0
  2  3  1  0
  3  4  2  0
  4  5  1  0
  5  6  2  0
  6  1  1  0
  3  7  1  0
  6  8  1  0
  7  9  2  0
  9 10  1  0
 10 11  2  0
 11 12  1  0
 12 13  2  0
 13  7  1  0
 11 14  1  0
 14 15  2  0
 14 16  1  0
  8 17  1  0
  8 18  2  0
 16 19  2  0
 19 20  1  0
 20 21  2  0
 21 15  1  0
 20 22  1  0
 22 23  1  0
 22 24  2  0
M  STY  1   1 SUP
M  SLB  1   1   1
M  SAL   1  2  25  26
M  SBL   1  1   2
M  SMT   1 CHO
M  SBV   1   2   -0.4126   -0.7145
M  END
>  <Name>  (54) 
L-54

$$$$
monoMOF-ligands.sdf
     RDKit          2D

 22 23  0  0  0  0  0  0  0  0999 V2000
   -3.2996    0.7150    0.0000 C   0  0  0  0  0  0  0  0  0  0  0  0
   -3.7121    0.0000    0.0000 C   0  0  0  0  0  0  0  0  0  0  0  0
   -3.3004   -0.7142    0.0000 C   0  0  0  0  0  0  0  0  0  0  0  0
   -2.4739   -0.7158    0.0000 C   0  0  0  0  0  0  0  0  0  0  0  0
   -2.0621    0.0000    0.0000 C   0  0  0  0  0  0  0  0  0  0  0  0
   -2.4746    0.7150    0.0000 C   0  0  0  0  0  0  0  0  0  0  0  0
   -4.5371    0.0008    0.0000 C   0  0  0  0  0  0  0  0  0  0  0  0
   -4.9504   -0.7135    0.0000 O   0  0  0  0  0  0  0  0  0  0  0  0
   -4.9496    0.7158    0.0000 O   0  0  0  0  0  0  0  0  0  0  0  0
   -1.2371    0.0000    0.0000 C   0  0  0  0  0  0  0  0  0  0  0  0
   -0.4121    0.0000    0.0000 C   0  0  0  0  0  0  0  0  0  0  0  0
    0.4129    0.0000    0.0000 C   0  0  0  0  0  0  0  0  0  0  0  0
    1.2379    0.0000    0.0000 C   0  0  0  0  0  0  0  0  0  0  0  0
    2.0629    0.0000    0.0000 C   0  0  0  0  0  0  0  0  0  0  0  0
    2.4754   -0.7142    0.0000 C   0  0  0  0  0  0  0  0  0  0  0  0
    3.3004   -0.7142    0.0000 C   0  0  0  0  0  0  0  0  0  0  0  0
    3.7129    0.0000    0.0000 C   0  0  0  0  0  0  0  0  0  0  0  0
    3.3004    0.7142    0.0000 C   0  0  0  0  0  0  0  0  0  0  0  0
    2.4754    0.7142    0.0000 C   0  0  0  0  0  0  0  0  0  0  0  0
    4.5379    0.0000    0.0000 C   0  0  0  0  0  0  0  0  0  0  0  0
    4.9504   -0.7142    0.0000 O   0  0  0  0  0  0  0  0  0  0  0  0
    4.9504    0.7142    0.0000 O   0  0  0  0  0  0  0  0  0  0  0  0
  1  2  2  0
  2  3  1  0
  3  4  2  0
  4  5  1  0
  5  6  2  0
  1  6  1  0
  2  7  1  0
  7  8  1  0
  7  9  2  0
  5 10  1  0
 10 11  3  0
 11 12  1  0
 12 13  3  0
 13 14  1  0
 14 15  2  0
 15 16  1  0
 16 17  2  0
 17 18  1  0
 18 19  2  0
 19 14  1  0
 17 20  1  0
 20 21  2  0
 20 22  1  0
M  END
>  <Name>  (55) 
L-55

$$$$
monoMOF-ligands.sdf
     RDKit          2D

 30 33  0  0  0  0  0  0  0  0999 V2000
   -4.1244   -0.7147    0.0000 C   0  0  0  0  0  0  0  0  0  0  0  0
   -3.2998   -0.7147    0.0000 C   0  0  0  0  0  0  0  0  0  0  0  0
   -2.8872    0.0004    0.0000 C   0  0  0  0  0  0  0  0  0  0  0  0
   -3.2998    0.7147    0.0000 C   0  0  0  0  0  0  0  0  0  0  0  0
   -4.1244    0.7147    0.0000 C   0  0  0  0  0  0  0  0  0  0  0  0
   -4.5370    0.0004    0.0000 C   0  0  0  0  0  0  0  0  0  0  0  0
   -2.0621    0.0004    0.0000 C   0  0  0  0  0  0  0  0  0  0  0  0
   -5.3622    0.0004    0.0000 C   0  0  0  0  0  0  0  0  0  0  0  0
   -1.6495   -0.7147    0.0000 C   0  0  0  0  0  0  0  0  0  0  0  0
   -0.8243   -0.7147    0.0000 C   0  0  0  0  0  0  0  0  0  0  0  0
   -0.4118    0.0004    0.0000 C   0  0  0  0  0  0  0  0  0  0  0  0
   -0.8243    0.7147    0.0000 C   0  0  0  0  0  0  0  0  0  0  0  0
   -1.6495    0.7147    0.0000 C   0  0  0  0  0  0  0  0  0  0  0  0
    0.4134    0.0004    0.0000 C   0  0  0  0  0  0  0  0  0  0  0  0
    0.8251    0.7147    0.0000 C   0  0  0  0  0  0  0  0  0  0  0  0
    0.8251   -0.7147    0.0000 C   0  0  0  0  0  0  0  0  0  0  0  0
   -5.7747   -0.7147    0.0000 O   0  0  0  0  0  0  0  0  0  0  0  0
   -5.7747    0.7147    0.0000 O   0  0  0  0  0  0  0  0  0  0  0  0
    1.6495   -0.7147    0.0000 C   0  0  0  0  0  0  0  0  0  0  0  0
    2.0621    0.0004    0.0000 C   0  0  0  0  0  0  0  0  0  0  0  0
    1.6495    0.7147    0.0000 C   0  0  0  0  0  0  0  0  0  0  0  0
    2.8872    0.0004    0.0000 C   0  0  0  0  0  0  0  0  0  0  0  0
    3.2991    0.7147    0.0000 C   0  0  0  0  0  0  0  0  0  0  0  0
    3.2991   -0.7140    0.0000 C   0  0  0  0  0  0  0  0  0  0  0  0
    4.1244   -0.7140    0.0000 C   0  0  0  0  0  0  0  0  0  0  0  0
    4.5370    0.0004    0.0000 C   0  0  0  0  0  0  0  0  0  0  0  0
    4.1244    0.7147    0.0000 C   0  0  0  0  0  0  0  0  0  0  0  0
    5.3622    0.0004    0.0000 C   0  0  0  0  0  0  0  0  0  0  0  0
    5.7747    0.7147    0.0000 O   0  0  0  0  0  0  0  0  0  0  0  0
    5.7747   -0.7140    0.0000 O   0  0  0  0  0  0  0  0  0  0  0  0
  1  2  2  0
  2  3  1  0
  3  4  2  0
  4  5  1  0
  5  6  2  0
  6  1  1  0
  3  7  1  0
  6  8  1  0
  7  9  2  0
  9 10  1  0
 10 11  2  0
 11 12  1  0
 12 13  2  0
 13  7  1  0
 11 14  1  0
 14 15  2  0
 14 16  1  0
  8 17  1  0
  8 18  2  0
 16 19  2  0
 19 20  1  0
 20 21  2  0
 21 15  1  0
 20 22  1  0
 22 23  2  0
 22 24  1  0
 24 25  2  0
 25 26  1  0
 26 27  2  0
 27 23  1  0
 26 28  1  0
 28 29  1  0
 28 30  2  0
M  END
>  <Name>  (56) 
L-56

$$$$
monoMOF-ligands.sdf
     RDKit          2D

 30 33  0  0  0  0  0  0  0  0999 V2000
   -4.1256   -0.7144    0.0000 C   0  0  0  0  0  0  0  0  0  0  0  0
   -3.3001   -0.7144    0.0000 C   0  0  0  0  0  0  0  0  0  0  0  0
   -2.8875   -0.0000    0.0000 C   0  0  0  0  0  0  0  0  0  0  0  0
   -3.3001    0.7144    0.0000 C   0  0  0  0  0  0  0  0  0  0  0  0
   -4.1256    0.7144    0.0000 C   0  0  0  0  0  0  0  0  0  0  0  0
   -4.5375   -0.0000    0.0000 C   0  0  0  0  0  0  0  0  0  0  0  0
   -2.0623   -0.0000    0.0000 C   0  0  0  0  0  0  0  0  0  0  0  0
   -5.3627   -0.0000    0.0000 C   0  0  0  0  0  0  0  0  0  0  0  0
   -1.6497   -0.7144    0.0000 C   0  0  0  0  0  0  0  0  0  0  0  0
   -0.8244   -0.7144    0.0000 C   0  0  0  0  0  0  0  0  0  0  0  0
   -0.4118   -0.0000    0.0000 C   0  0  0  0  0  0  0  0  0  0  0  0
   -0.8244    0.7144    0.0000 N   0  0  0  0  0  0  0  0  0  0  0  0
   -1.6497    0.7144    0.0000 C   0  0  0  0  0  0  0  0  0  0  0  0
    0.4134   -0.0000    0.0000 C   0  0  0  0  0  0  0  0  0  0  0  0
    0.8252    0.7144    0.0000 N   0  0  0  0  0  0  0  0  0  0  0  0
    0.8252   -0.7144    0.0000 C   0  0  0  0  0  0  0  0  0  0  0  0
   -5.7753   -0.7144    0.0000 O   0  0  0  0  0  0  0  0  0  0  0  0
   -5.7753    0.7144    0.0000 O   0  0  0  0  0  0  0  0  0  0  0  0
    1.6497   -0.7144    0.0000 C   0  0  0  0  0  0  0  0  0  0  0  0
    2.0623   -0.0000    0.0000 C   0  0  0  0  0  0  0  0  0  0  0  0
    1.6497    0.7144    0.0000 C   0  0  0  0  0  0  0  0  0  0  0  0
    2.8875   -0.0000    0.0000 C   0  0  0  0  0  0  0  0  0  0  0  0
    3.2994    0.7144    0.0000 C   0  0  0  0  0  0  0  0  0  0  0  0
    3.2994   -0.7144    0.0000 C   0  0  0  0  0  0  0  0  0  0  0  0
    4.1249   -0.7144    0.0000 C   0  0  0  0  0  0  0  0  0  0  0  0
    4.5375   -0.0000    0.0000 C   0  0  0  0  0  0  0  0  0  0  0  0
    4.1249    0.7144    0.0000 C   0  0  0  0  0  0  0  0  0  0  0  0
    5.3627   -0.0000    0.0000 C   0  0  0  0  0  0  0  0  0  0  0  0
    5.7753    0.7144    0.0000 O   0  0  0  0  0  0  0  0  0  0  0  0
    5.7753   -0.7144    0.0000 O   0  0  0  0  0  0  0  0  0  0  0  0
  1  2  2  0
  2  3  1  0
  3  4  2  0
  4  5  1  0
  5  6  2  0
  6  1  1  0
  3  7  1  0
  6  8  1  0
  7  9  2  0
  9 10  1  0
 10 11  2  0
 11 12  1  0
 12 13  2  0
 13  7  1  0
 11 14  1  0
 14 15  2  0
 14 16  1  0
  8 17  1  0
  8 18  2  0
 16 19  2  0
 19 20  1  0
 20 21  2  0
 21 15  1  0
 20 22  1  0
 22 23  2  0
 22 24  1  0
 24 25  2  0
 25 26  1  0
 26 27  2  0
 27 23  1  0
 26 28  1  0
 28 29  1  0
 28 30  2  0
M  END
>  <Name>  (57) 
L-57

$$$$
monoMOF-ligands.sdf
     RDKit          2D

 30 33  0  0  0  0  0  0  0  0999 V2000
   -4.1244   -0.7147    0.0000 C   0  0  0  0  0  0  0  0  0  0  0  0
   -3.2998   -0.7147    0.0000 C   0  0  0  0  0  0  0  0  0  0  0  0
   -2.8872    0.0004    0.0000 C   0  0  0  0  0  0  0  0  0  0  0  0
   -3.2998    0.7147    0.0000 C   0  0  0  0  0  0  0  0  0  0  0  0
   -4.1244    0.7147    0.0000 C   0  0  0  0  0  0  0  0  0  0  0  0
   -4.5370    0.0004    0.0000 C   0  0  0  0  0  0  0  0  0  0  0  0
   -2.0621    0.0004    0.0000 N   0  0  0  0  0  0  0  0  0  0  0  0
   -5.3622    0.0004    0.0000 C   0  0  0  0  0  0  0  0  0  0  0  0
   -1.6495   -0.7147    0.0000 C   0  0  0  0  0  0  0  0  0  0  0  0
   -0.8243   -0.7147    0.0000 C   0  0  0  0  0  0  0  0  0  0  0  0
   -0.4118    0.0004    0.0000 C   0  0  0  0  0  0  0  0  0  0  0  0
   -0.8243    0.7147    0.0000 C   0  0  0  0  0  0  0  0  0  0  0  0
   -1.6495    0.7147    0.0000 C   0  0  0  0  0  0  0  0  0  0  0  0
    0.4134    0.0004    0.0000 C   0  0  0  0  0  0  0  0  0  0  0  0
    0.8251    0.7147    0.0000 C   0  0  0  0  0  0  0  0  0  0  0  0
    0.8251   -0.7147    0.0000 C   0  0  0  0  0  0  0  0  0  0  0  0
   -5.7747   -0.7147    0.0000 O   0  0  0  0  0  0  0  0  0  0  0  0
   -5.7747    0.7147    0.0000 O   0  0  0  0  0  0  0  0  0  0  0  0
    1.6495   -0.7147    0.0000 C   0  0  0  0  0  0  0  0  0  0  0  0
    2.0621    0.0004    0.0000 N   0  0  0  0  0  0  0  0  0  0  0  0
    1.6495    0.7147    0.0000 C   0  0  0  0  0  0  0  0  0  0  0  0
    2.8872    0.0004    0.0000 C   0  0  0  0  0  0  0  0  0  0  0  0
    3.2991    0.7147    0.0000 C   0  0  0  0  0  0  0  0  0  0  0  0
    3.2991   -0.7140    0.0000 C   0  0  0  0  0  0  0  0  0  0  0  0
    4.1244   -0.7140    0.0000 C   0  0  0  0  0  0  0  0  0  0  0  0
    4.5370    0.0004    0.0000 C   0  0  0  0  0  0  0  0  0  0  0  0
    4.1244    0.7147    0.0000 C   0  0  0  0  0  0  0  0  0  0  0  0
    5.3622    0.0004    0.0000 C   0  0  0  0  0  0  0  0  0  0  0  0
    5.7747    0.7147    0.0000 O   0  0  0  0  0  0  0  0  0  0  0  0
    5.7747   -0.7140    0.0000 O   0  0  0  0  0  0  0  0  0  0  0  0
  1  2  2  0
  2  3  1  0
  3  4  2  0
  4  5  1  0
  5  6  2  0
  6  1  1  0
  3  7  1  0
  6  8  1  0
  7  9  2  0
  9 10  1  0
 10 11  2  0
 11 12  1  0
 12 13  2  0
 13  7  1  0
 11 14  1  0
 14 15  2  0
 14 16  1  0
  8 17  1  0
  8 18  2  0
 16 19  2  0
 19 20  1  0
 20 21  2  0
 21 15  1  0
 20 22  1  0
 22 23  2  0
 22 24  1  0
 24 25  2  0
 25 26  1  0
 26 27  2  0
 27 23  1  0
 26 28  1  0
 28 29  1  0
 28 30  2  0
M  CHG  2   7   1  20   1
M  END
>  <Name>  (58) 
L-58

$$$$
monoMOF-ligands.sdf
     RDKit          2D

 33 36  0  1  0  0  0  0  0  0999 V2000
   -4.1260   -1.4277    0.0000 C   0  0  0  0  0  0  0  0  0  0  0  0
   -3.3005   -1.4277    0.0000 C   0  0  0  0  0  0  0  0  0  0  0  0
   -2.8879   -0.7125    0.0000 C   0  0  0  0  0  0  0  0  0  0  0  0
   -3.3005    0.0019    0.0000 C   0  0  0  0  0  0  0  0  0  0  0  0
   -4.1260    0.0019    0.0000 C   0  0  0  0  0  0  0  0  0  0  0  0
   -4.5379   -0.7125    0.0000 C   0  0  0  0  0  0  0  0  0  0  0  0
   -2.0627   -0.7125    0.0000 C   0  0  0  0  0  0  0  0  0  0  0  0
   -5.3623   -0.7125    0.0000 C   0  0  0  0  0  0  0  0  0  0  0  0
   -1.6501   -1.4277    0.0000 C   0  0  0  0  0  0  0  0  0  0  0  0
   -0.8248   -1.4277    0.0000 C   0  0  0  0  0  0  0  0  0  0  0  0
   -0.4122   -0.7125    0.0000 C   0  0  0  0  0  0  0  0  0  0  0  0
   -0.8248    0.0019    0.0000 C   0  0  0  0  0  0  0  0  0  0  0  0
   -1.6501    0.0019    0.0000 C   0  0  0  0  0  0  0  0  0  0  0  0
    0.4130   -0.7125    0.0000 C   0  0  0  0  0  0  0  0  0  0  0  0
    0.8256    0.0019    0.0000 C   0  0  0  0  0  0  0  0  0  0  0  0
    0.8256   -1.4277    0.0000 C   0  0  0  0  0  0  0  0  0  0  0  0
   -5.7749   -1.4277    0.0000 O   0  0  0  0  0  0  0  0  0  0  0  0
   -5.7749    0.0019    0.0000 O   0  0  0  0  0  0  0  0  0  0  0  0
    1.6501   -1.4277    0.0000 C   0  0  0  0  0  0  0  0  0  0  0  0
    2.0627   -0.7125    0.0000 C   0  0  0  0  0  0  0  0  0  0  0  0
    1.6501    0.0019    0.0000 C   0  0  0  0  0  0  0  0  0  0  0  0
    2.8872   -0.7125    0.0000 C   0  0  0  0  0  0  0  0  0  0  0  0
    3.2990    0.0019    0.0000 C   0  0  0  0  0  0  0  0  0  0  0  0
    3.2990   -1.4270    0.0000 C   0  0  0  0  0  0  0  0  0  0  0  0
    4.1245   -1.4270    0.0000 C   0  0  0  0  0  0  0  0  0  0  0  0
    4.5371   -0.7125    0.0000 C   0  0  0  0  0  0  0  0  0  0  0  0
    4.1245    0.0019    0.0000 C   0  0  0  0  0  0  0  0  0  0  0  0
    5.3623   -0.7125    0.0000 C   0  0  0  0  0  0  0  0  0  0  0  0
    5.7749    0.0019    0.0000 O   0  0  0  0  0  0  0  0  0  0  0  0
    5.7749   -1.4270    0.0000 O   0  0  0  0  0  0  0  0  0  0  0  0
    0.4130    0.7163    0.0000 N   0  0  0  0  0  0  0  0  0  0  0  0
    0.8233    1.4277    0.0000 O   0  0  0  0  0  0  0  0  0  0  0  0
   -0.4084    0.7163    0.0000 O   0  0  0  0  0  0  0  0  0  0  0  0
 31 32  2  0
 31 33  1  0
 15 31  1  0
  1  2  2  0
  2  3  1  0
  3  4  2  0
  4  5  1  0
  5  6  2  0
  6  1  1  0
  3  7  1  0
  6  8  1  0
  7  9  2  0
  9 10  1  0
 10 11  2  0
 11 12  1  0
 12 13  2  0
 13  7  1  0
 11 14  1  0
 14 15  2  0
 14 16  1  0
  8 17  1  0
  8 18  2  0
 16 19  2  0
 20 21  2  0
 21 15  1  0
 20 22  1  0
 22 23  2  0
 22 24  1  0
 24 25  2  0
 25 26  1  0
 26 27  2  0
 27 23  1  0
 26 28  1  0
 28 29  1  0
 28 30  2  0
 20 19  1  0
M  CHG  2  31   1  33  -1
M  STY  1   1 SUP
M  SLB  1   1   1
M  SAL   1  3  31  32  33
M  SBL   1  1   3
M  SMT   1 NO2
M  SBV   1   3    0.4126   -0.7144
M  END
>  <Name>  (59) 
L-59

$$$$
monoMOF-ligands.sdf
     RDKit          2D

 31 34  0  0  0  0  0  0  0  0999 V2000
   -4.1231   -1.0717    0.0000 C   0  0  0  0  0  0  0  0  0  0  0  0
   -3.2989   -1.0717    0.0000 C   0  0  0  0  0  0  0  0  0  0  0  0
   -2.8864   -0.3567    0.0000 C   0  0  0  0  0  0  0  0  0  0  0  0
   -3.2989    0.3575    0.0000 C   0  0  0  0  0  0  0  0  0  0  0  0
   -4.1231    0.3575    0.0000 C   0  0  0  0  0  0  0  0  0  0  0  0
   -4.5356   -0.3567    0.0000 C   0  0  0  0  0  0  0  0  0  0  0  0
   -2.0614   -0.3567    0.0000 C   0  0  0  0  0  0  0  0  0  0  0  0
   -5.3606   -0.3567    0.0000 C   0  0  0  0  0  0  0  0  0  0  0  0
   -1.6496   -1.0717    0.0000 C   0  0  0  0  0  0  0  0  0  0  0  0
   -0.8246   -1.0717    0.0000 C   0  0  0  0  0  0  0  0  0  0  0  0
   -0.4121   -0.3567    0.0000 C   0  0  0  0  0  0  0  0  0  0  0  0
   -0.8246    0.3575    0.0000 C   0  0  0  0  0  0  0  0  0  0  0  0
   -1.6496    0.3575    0.0000 C   0  0  0  0  0  0  0  0  0  0  0  0
    0.4129   -0.3567    0.0000 C   0  0  0  0  0  0  0  0  0  0  0  0
    0.8246    0.3575    0.0000 C   0  0  0  0  0  0  0  0  0  0  0  0
    0.8246   -1.0717    0.0000 C   0  0  0  0  0  0  0  0  0  0  0  0
   -5.7731   -1.0717    0.0000 O   0  0  0  0  0  0  0  0  0  0  0  0
   -5.7731    0.3575    0.0000 O   0  0  0  0  0  0  0  0  0  0  0  0
    1.6496   -1.0717    0.0000 C   0  0  0  0  0  0  0  0  0  0  0  0
    2.0621   -0.3567    0.0000 C   0  0  0  0  0  0  0  0  0  0  0  0
    1.6496    0.3575    0.0000 C   0  0  0  0  0  0  0  0  0  0  0  0
    2.8871   -0.3567    0.0000 C   0  0  0  0  0  0  0  0  0  0  0  0
    3.2989    0.3575    0.0000 C   0  0  0  0  0  0  0  0  0  0  0  0
    3.2989   -1.0710    0.0000 C   0  0  0  0  0  0  0  0  0  0  0  0
    4.1239   -1.0710    0.0000 C   0  0  0  0  0  0  0  0  0  0  0  0
    4.5364   -0.3567    0.0000 C   0  0  0  0  0  0  0  0  0  0  0  0
    4.1239    0.3575    0.0000 C   0  0  0  0  0  0  0  0  0  0  0  0
    5.3606   -0.3567    0.0000 C   0  0  0  0  0  0  0  0  0  0  0  0
    5.7731    0.3575    0.0000 O   0  0  0  0  0  0  0  0  0  0  0  0
    5.7731   -1.0710    0.0000 O   0  0  0  0  0  0  0  0  0  0  0  0
    0.4121    1.0717    0.0000 N   0  0  0  0  0  0  0  0  0  0  0  0
  1  2  2  0
  2  3  1  0
  3  4  2  0
  4  5  1  0
  5  6  2  0
  6  1  1  0
  3  7  1  0
  6  8  1  0
  7  9  2  0
  9 10  1  0
 10 11  2  0
 11 12  1  0
 12 13  2  0
 13  7  1  0
 11 14  1  0
 14 15  2  0
 14 16  1  0
  8 17  1  0
  8 18  2  0
 16 19  2  0
 19 20  1  0
 20 21  2  0
 21 15  1  0
 20 22  1  0
 22 23  2  0
 22 24  1  0
 24 25  2  0
 25 26  1  0
 26 27  2  0
 27 23  1  0
 26 28  1  0
 28 29  1  0
 28 30  2  0
 15 31  1  0
M  END
>  <Name>  (60) 
L-60

$$$$
monoMOF-ligands.sdf
     RDKit          2D

 32 35  0  0  0  0  0  0  0  0999 V2000
   -4.1255   -0.7147    0.0000 C   0  0  0  0  0  0  0  0  0  0  0  0
   -3.3002   -0.7147    0.0000 C   0  0  0  0  0  0  0  0  0  0  0  0
   -2.8876    0.0004    0.0000 C   0  0  0  0  0  0  0  0  0  0  0  0
   -3.3002    0.7147    0.0000 C   0  0  0  0  0  0  0  0  0  0  0  0
   -4.1255    0.7147    0.0000 C   0  0  0  0  0  0  0  0  0  0  0  0
   -4.5374    0.0004    0.0000 C   0  0  0  0  0  0  0  0  0  0  0  0
   -2.0625    0.0004    0.0000 C   0  0  0  0  0  0  0  0  0  0  0  0
   -5.3618    0.0004    0.0000 C   0  0  0  0  0  0  0  0  0  0  0  0
   -1.6499   -0.7147    0.0000 C   0  0  0  0  0  0  0  0  0  0  0  0
   -0.8247   -0.7147    0.0000 C   0  0  0  0  0  0  0  0  0  0  0  0
   -0.4122    0.0004    0.0000 C   0  0  0  0  0  0  0  0  0  0  0  0
   -0.8247    0.7147    0.0000 C   0  0  0  0  0  0  0  0  0  0  0  0
   -1.6499    0.7147    0.0000 C   0  0  0  0  0  0  0  0  0  0  0  0
    0.4130    0.0004    0.0000 C   0  0  0  0  0  0  0  0  0  0  0  0
    0.8255    0.7147    0.0000 C   0  0  0  0  0  0  0  0  0  0  0  0
    0.8255   -0.7147    0.0000 C   0  0  0  0  0  0  0  0  0  0  0  0
   -5.7743   -0.7147    0.0000 O   0  0  0  0  0  0  0  0  0  0  0  0
   -5.7743    0.7147    0.0000 O   0  0  0  0  0  0  0  0  0  0  0  0
    1.6499   -0.7147    0.0000 C   0  0  0  0  0  0  0  0  0  0  0  0
    2.0625    0.0004    0.0000 C   0  0  0  0  0  0  0  0  0  0  0  0
    1.6499    0.7147    0.0000 C   0  0  0  0  0  0  0  0  0  0  0  0
    2.8869    0.0004    0.0000 C   0  0  0  0  0  0  0  0  0  0  0  0
    3.2987    0.7147    0.0000 C   0  0  0  0  0  0  0  0  0  0  0  0
    3.2987   -0.7140    0.0000 C   0  0  0  0  0  0  0  0  0  0  0  0
    4.1240   -0.7140    0.0000 C   0  0  0  0  0  0  0  0  0  0  0  0
    4.5366    0.0004    0.0000 C   0  0  0  0  0  0  0  0  0  0  0  0
    4.1240    0.7147    0.0000 C   0  0  0  0  0  0  0  0  0  0  0  0
    5.3618    0.0004    0.0000 C   0  0  0  0  0  0  0  0  0  0  0  0
    5.7743    0.7147    0.0000 O   0  0  0  0  0  0  0  0  0  0  0  0
    5.7743   -0.7140    0.0000 O   0  0  0  0  0  0  0  0  0  0  0  0
    2.0618    1.4292    0.0000 C   0  0  0  0  0  0  0  0  0  0  0  0
   -2.0625   -1.4292    0.0000 C   0  0  0  0  0  0  0  0  0  0  0  0
  1  2  2  0
  2  3  1  0
  3  4  2  0
  4  5  1  0
  5  6  2  0
  6  1  1  0
  3  7  1  0
  6  8  1  0
  7  9  2  0
  9 10  1  0
 10 11  2  0
 11 12  1  0
 12 13  2  0
 13  7  1  0
 11 14  1  0
 14 15  2  0
 14 16  1  0
  8 17  1  0
  8 18  2  0
 16 19  2  0
 19 20  1  0
 20 21  2  0
 21 15  1  0
 20 22  1  0
 22 23  2  0
 22 24  1  0
 24 25  2  0
 25 26  1  0
 26 27  2  0
 27 23  1  0
 26 28  1  0
 28 29  1  0
 28 30  2  0
 21 31  1  0
  9 32  1  0
M  END
>  <Name>  (61) 
L-61

$$$$
monoMOF-ligands.sdf
     RDKit          2D

 32 36  0  0  0  0  0  0  0  0999 V2000
   -4.1253   -0.3576    0.0000 C   0  0  0  0  0  0  0  0  0  0  0  0
   -3.3005   -0.3576    0.0000 C   0  0  0  0  0  0  0  0  0  0  0  0
   -2.8879    0.3576    0.0000 C   0  0  0  0  0  0  0  0  0  0  0  0
   -3.3005    1.0720    0.0000 C   0  0  0  0  0  0  0  0  0  0  0  0
   -4.1253    1.0720    0.0000 C   0  0  0  0  0  0  0  0  0  0  0  0
   -4.5379    0.3576    0.0000 C   0  0  0  0  0  0  0  0  0  0  0  0
   -2.0627    0.3576    0.0000 C   0  0  0  0  0  0  0  0  0  0  0  0
   -5.3623    0.3576    0.0000 C   0  0  0  0  0  0  0  0  0  0  0  0
   -1.6501   -0.3576    0.0000 C   0  0  0  0  0  0  0  0  0  0  0  0
   -0.8248   -0.3576    0.0000 C   0  0  0  0  0  0  0  0  0  0  0  0
   -0.4122    0.3576    0.0000 C   0  0  0  0  0  0  0  0  0  0  0  0
   -0.8248    1.0720    0.0000 N   0  0  0  0  0  0  0  0  0  0  0  0
   -1.6501    1.0720    0.0000 C   0  0  0  0  0  0  0  0  0  0  0  0
    0.4130    0.3576    0.0000 C   0  0  0  0  0  0  0  0  0  0  0  0
    0.8256    1.0720    0.0000 N   0  0  0  0  0  0  0  0  0  0  0  0
    0.8256   -0.3576    0.0000 C   0  0  0  0  0  0  0  0  0  0  0  0
   -5.7749   -0.3576    0.0000 O   0  0  0  0  0  0  0  0  0  0  0  0
   -5.7749    1.0720    0.0000 O   0  0  0  0  0  0  0  0  0  0  0  0
    1.6501   -0.3576    0.0000 C   0  0  0  0  0  0  0  0  0  0  0  0
    2.0627    0.3576    0.0000 C   0  0  0  0  0  0  0  0  0  0  0  0
    1.6501    1.0720    0.0000 C   0  0  0  0  0  0  0  0  0  0  0  0
    2.8872    0.3576    0.0000 C   0  0  0  0  0  0  0  0  0  0  0  0
    3.2990    1.0720    0.0000 C   0  0  0  0  0  0  0  0  0  0  0  0
    3.2990   -0.3568    0.0000 C   0  0  0  0  0  0  0  0  0  0  0  0
    4.1245   -0.3568    0.0000 C   0  0  0  0  0  0  0  0  0  0  0  0
    4.5371    0.3576    0.0000 C   0  0  0  0  0  0  0  0  0  0  0  0
    4.1245    1.0720    0.0000 C   0  0  0  0  0  0  0  0  0  0  0  0
    5.3623    0.3576    0.0000 C   0  0  0  0  0  0  0  0  0  0  0  0
    5.7749    1.0720    0.0000 O   0  0  0  0  0  0  0  0  0  0  0  0
    5.7749   -0.3568    0.0000 O   0  0  0  0  0  0  0  0  0  0  0  0
   -0.4122   -1.0720    0.0000 C   0  0  0  0  0  0  0  0  0  0  0  0
    0.4130   -1.0720    0.0000 C   0  0  0  0  0  0  0  0  0  0  0  0
  1  2  2  0
  2  3  1  0
  3  4  2  0
  4  5  1  0
  5  6  2  0
  6  1  1  0
  3  7  1  0
  6  8  1  0
  7  9  2  0
  9 10  1  0
 10 11  2  0
 11 12  1  0
 12 13  2  0
 13  7  1  0
 11 14  1  0
 14 15  2  0
 14 16  1  0
  8 17  1  0
  8 18  2  0
 16 19  2  0
 19 20  1  0
 20 21  2  0
 21 15  1  0
 20 22  1  0
 22 23  2  0
 22 24  1  0
 24 25  2  0
 25 26  1  0
 26 27  2  0
 27 23  1  0
 26 28  1  0
 28 29  1  0
 28 30  2  0
 10 31  1  0
 31 32  2  0
 32 16  1  0
M  END
>  <Name>  (62) 
L-62

$$$$
monoMOF-ligands.sdf
     RDKit          2D

 46 53  0  0  0  0  0  0  0  0999 V2000
   -4.1244   -0.7143    0.0000 C   0  0  0  0  0  0  0  0  0  0  0  0
   -3.2998   -0.7143    0.0000 C   0  0  0  0  0  0  0  0  0  0  0  0
   -2.8872    0.0008    0.0000 C   0  0  0  0  0  0  0  0  0  0  0  0
   -3.2998    0.7151    0.0000 C   0  0  0  0  0  0  0  0  0  0  0  0
   -4.1244    0.7151    0.0000 C   0  0  0  0  0  0  0  0  0  0  0  0
   -4.5370    0.0008    0.0000 C   0  0  0  0  0  0  0  0  0  0  0  0
   -2.0621    0.0008    0.0000 C   0  0  0  0  0  0  0  0  0  0  0  0
   -5.3622    0.0008    0.0000 C   0  0  0  0  0  0  0  0  0  0  0  0
   -1.6495   -0.7143    0.0000 C   0  0  0  0  0  0  0  0  0  0  0  0
   -0.8243   -0.7143    0.0000 C   0  0  0  0  0  0  0  0  0  0  0  0
   -0.4118    0.0008    0.0000 C   0  0  0  0  0  0  0  0  0  0  0  0
   -0.8243    0.7151    0.0000 C   0  0  0  0  0  0  0  0  0  0  0  0
   -1.6495    0.7151    0.0000 C   0  0  0  0  0  0  0  0  0  0  0  0
    0.4134    0.0008    0.0000 C   0  0  0  0  0  0  0  0  0  0  0  0
    0.8251    0.7151    0.0000 C   0  0  0  0  0  0  0  0  0  0  0  0
    0.8251   -0.7143    0.0000 C   0  0  0  0  0  0  0  0  0  0  0  0
   -5.7747   -0.7143    0.0000 O   0  0  0  0  0  0  0  0  0  0  0  0
   -5.7747    0.7151    0.0000 O   0  0  0  0  0  0  0  0  0  0  0  0
    1.6495   -0.7143    0.0000 C   0  0  0  0  0  0  0  0  0  0  0  0
    2.0621    0.0008    0.0000 C   0  0  0  0  0  0  0  0  0  0  0  0
    1.6495    0.7151    0.0000 C   0  0  0  0  0  0  0  0  0  0  0  0
    2.8872    0.0008    0.0000 C   0  0  0  0  0  0  0  0  0  0  0  0
    3.2991    0.7151    0.0000 C   0  0  0  0  0  0  0  0  0  0  0  0
    3.2991   -0.7136    0.0000 C   0  0  0  0  0  0  0  0  0  0  0  0
    4.1244   -0.7136    0.0000 C   0  0  0  0  0  0  0  0  0  0  0  0
    4.5370    0.0008    0.0000 C   0  0  0  0  0  0  0  0  0  0  0  0
    4.1244    0.7151    0.0000 C   0  0  0  0  0  0  0  0  0  0  0  0
    5.3622    0.0008    0.0000 C   0  0  0  0  0  0  0  0  0  0  0  0
    5.7747    0.7151    0.0000 O   0  0  0  0  0  0  0  0  0  0  0  0
    5.7747   -0.7136    0.0000 O   0  0  0  0  0  0  0  0  0  0  0  0
   -0.4118    1.4295    0.0000 C   0  0  0  0  0  0  0  0  0  0  0  0
   -0.8243    2.1439    0.0000 C   0  0  0  0  0  0  0  0  0  0  0  0
   -1.6495    2.1439    0.0000 C   0  0  0  0  0  0  0  0  0  0  0  0
   -2.0621    1.4295    0.0000 C   0  0  0  0  0  0  0  0  0  0  0  0
    2.0621    1.4295    0.0000 C   0  0  0  0  0  0  0  0  0  0  0  0
    1.6495    2.1439    0.0000 C   0  0  0  0  0  0  0  0  0  0  0  0
    0.8251    2.1439    0.0000 C   0  0  0  0  0  0  0  0  0  0  0  0
    0.4126    1.4295    0.0000 C   0  0  0  0  0  0  0  0  0  0  0  0
   -2.0621   -1.4288    0.0000 C   0  0  0  0  0  0  0  0  0  0  0  0
   -1.6495   -2.1439    0.0000 C   0  0  0  0  0  0  0  0  0  0  0  0
   -0.8243   -2.1439    0.0000 C   0  0  0  0  0  0  0  0  0  0  0  0
   -0.4118   -1.4288    0.0000 C   0  0  0  0  0  0  0  0  0  0  0  0
    0.4126   -1.4288    0.0000 C   0  0  0  0  0  0  0  0  0  0  0  0
    0.8251   -2.1439    0.0000 C   0  0  0  0  0  0  0  0  0  0  0  0
    1.6495   -2.1439    0.0000 C   0  0  0  0  0  0  0  0  0  0  0  0
    2.0621   -1.4288    0.0000 C   0  0  0  0  0  0  0  0  0  0  0  0
  1  2  2  0
  2  3  1  0
  3  4  2  0
  4  5  1  0
  5  6  2  0
  6  1  1  0
  3  7  1  0
  6  8  1  0
  7  9  2  0
  9 10  1  0
 10 11  2  0
 11 12  1  0
 12 13  1  0
 13  7  1  0
 11 14  1  0
 14 15  1  0
 14 16  2  0
  8 17  1  0
  8 18  2  0
 16 19  1  0
 19 20  2  0
 20 21  1  0
 21 15  1  0
 20 22  1  0
 22 23  2  0
 22 24  1  0
 24 25  2  0
 25 26  1  0
 26 27  2  0
 27 23  1  0
 26 28  1  0
 28 29  1  0
 28 30  2  0
 12 31  2  0
 31 32  1  0
 32 33  2  0
 33 34  1  0
 34 13  2  0
 21 35  2  0
 35 36  1  0
 36 37  2  0
 37 38  1  0
 38 15  2  0
  9 39  1  0
 39 40  2  0
 40 41  1  0
 41 42  2  0
 42 10  1  0
 16 43  1  0
 43 44  2  0
 44 45  1  0
 45 46  2  0
 46 19  1  0
M  END
>  <Name>  (63) 
L-63

$$$$
monoMOF-ligands.sdf
     RDKit          2D

 38 43  0  0  0  0  0  0  0  0999 V2000
   -4.1254   -0.7152    0.0000 C   0  0  0  0  0  0  0  0  0  0  0  0
   -3.3002   -0.7152    0.0000 C   0  0  0  0  0  0  0  0  0  0  0  0
   -2.8877   -0.0008    0.0000 C   0  0  0  0  0  0  0  0  0  0  0  0
   -3.3002    0.7137    0.0000 C   0  0  0  0  0  0  0  0  0  0  0  0
   -4.1254    0.7137    0.0000 C   0  0  0  0  0  0  0  0  0  0  0  0
   -4.5373   -0.0008    0.0000 C   0  0  0  0  0  0  0  0  0  0  0  0
   -5.3617   -0.0008    0.0000 C   0  0  0  0  0  0  0  0  0  0  0  0
   -2.0626   -0.0008    0.0000 N   0  0  0  0  0  0  0  0  0  0  0  0
   -5.7742    0.7137    0.0000 O   0  0  0  0  0  0  0  0  0  0  0  0
   -5.7742   -0.7152    0.0000 O   0  0  0  0  0  0  0  0  0  0  0  0
   -1.6499   -0.7152    0.0000 C   0  0  0  0  0  0  0  0  0  0  0  0
   -0.8248   -0.7152    0.0000 C   0  0  0  0  0  0  0  0  0  0  0  0
   -0.4122   -0.0008    0.0000 C   0  0  0  0  0  0  0  0  0  0  0  0
   -0.8248    0.7137    0.0000 C   0  0  0  0  0  0  0  0  0  0  0  0
   -1.6499    0.7137    0.0000 C   0  0  0  0  0  0  0  0  0  0  0  0
   -0.4122   -1.4288    0.0000 C   0  0  0  0  0  0  0  0  0  0  0  0
    0.4130   -1.4288    0.0000 C   0  0  0  0  0  0  0  0  0  0  0  0
    0.8256   -0.7152    0.0000 C   0  0  0  0  0  0  0  0  0  0  0  0
    0.4130   -0.0008    0.0000 C   0  0  0  0  0  0  0  0  0  0  0  0
    0.8256    0.7137    0.0000 C   0  0  0  0  0  0  0  0  0  0  0  0
    0.4130    1.4288    0.0000 C   0  0  0  0  0  0  0  0  0  0  0  0
   -0.4122    1.4288    0.0000 C   0  0  0  0  0  0  0  0  0  0  0  0
    1.6499   -0.7152    0.0000 C   0  0  0  0  0  0  0  0  0  0  0  0
    2.0626   -0.0008    0.0000 N   0  0  0  0  0  0  0  0  0  0  0  0
    1.6499    0.7137    0.0000 C   0  0  0  0  0  0  0  0  0  0  0  0
    2.8870   -0.0008    0.0000 C   0  0  0  0  0  0  0  0  0  0  0  0
    3.2987   -0.7152    0.0000 C   0  0  0  0  0  0  0  0  0  0  0  0
    4.1239   -0.7152    0.0000 C   0  0  0  0  0  0  0  0  0  0  0  0
    4.5365   -0.0008    0.0000 C   0  0  0  0  0  0  0  0  0  0  0  0
    4.1239    0.7137    0.0000 C   0  0  0  0  0  0  0  0  0  0  0  0
    3.2987    0.7137    0.0000 C   0  0  0  0  0  0  0  0  0  0  0  0
    5.3617   -0.0008    0.0000 C   0  0  0  0  0  0  0  0  0  0  0  0
    5.7742   -0.7152    0.0000 O   0  0  0  0  0  0  0  0  0  0  0  0
    5.7742    0.7137    0.0000 O   0  0  0  0  0  0  0  0  0  0  0  0
    2.0626    1.4288    0.0000 O   0  0  0  0  0  0  0  0  0  0  0  0
    2.0626   -1.4288    0.0000 O   0  0  0  0  0  0  0  0  0  0  0  0
   -2.0626   -1.4288    0.0000 O   0  0  0  0  0  0  0  0  0  0  0  0
   -2.0626    1.4288    0.0000 O   0  0  0  0  0  0  0  0  0  0  0  0
  1  2  2  0
  2  3  1  0
  3  4  2  0
  4  5  1  0
  5  6  2  0
  6  1  1  0
  6  7  1  0
  3  8  1  0
  7  9  2  0
  7 10  1  0
  8 11  1  0
 11 12  1  0
 12 13  2  0
 13 14  1  0
 14 15  1  0
 15  8  1  0
 12 16  1  0
 16 17  2  0
 17 18  1  0
 18 19  2  0
 19 13  1  0
 19 20  1  0
 20 21  2  0
 21 22  1  0
 22 14  2  0
 18 23  1  0
 23 24  1  0
 24 25  1  0
 25 20  1  0
 24 26  1  0
 26 27  2  0
 27 28  1  0
 28 29  2  0
 29 30  1  0
 30 31  2  0
 31 26  1  0
 29 32  1  0
 32 33  2  0
 32 34  1  0
 25 35  2  0
 23 36  2  0
 11 37  2  0
 15 38  2  0
M  END
>  <Name>  (64) 
L-64

$$$$
monoMOF-ligands.sdf
     RDKit          2D

 42 47  0  0  0  0  0  0  0  0999 V2000
   -4.1260   -0.7152    0.0000 C   0  0  0  0  0  0  0  0  0  0  0  0
   -3.3005   -0.7152    0.0000 C   0  0  0  0  0  0  0  0  0  0  0  0
   -2.8879   -0.0008    0.0000 C   0  0  0  0  0  0  0  0  0  0  0  0
   -3.3005    0.7137    0.0000 C   0  0  0  0  0  0  0  0  0  0  0  0
   -4.1260    0.7137    0.0000 C   0  0  0  0  0  0  0  0  0  0  0  0
   -4.5379   -0.0008    0.0000 C   0  0  0  0  0  0  0  0  0  0  0  0
   -5.3623   -0.0008    0.0000 C   0  0  0  0  0  0  0  0  0  0  0  0
   -2.0627   -0.0008    0.0000 N   0  0  0  0  0  0  0  0  0  0  0  0
   -5.7749    0.7137    0.0000 O   0  0  0  0  0  0  0  0  0  0  0  0
   -5.7749   -0.7152    0.0000 O   0  0  0  0  0  0  0  0  0  0  0  0
   -1.6501   -0.7152    0.0000 C   0  0  0  0  0  0  0  0  0  0  0  0
   -0.8248   -0.7152    0.0000 C   0  0  0  0  0  0  0  0  0  0  0  0
   -0.4122   -0.0008    0.0000 C   0  0  0  0  0  0  0  0  0  0  0  0
   -0.8248    0.7137    0.0000 C   0  0  0  0  0  0  0  0  0  0  0  0
   -1.6501    0.7137    0.0000 C   0  0  0  0  0  0  0  0  0  0  0  0
   -0.4122   -1.4289    0.0000 C   0  0  0  0  0  0  0  0  0  0  0  0
    0.4130   -1.4289    0.0000 C   0  0  0  0  0  0  0  0  0  0  0  0
    0.8256   -0.7152    0.0000 C   0  0  0  0  0  0  0  0  0  0  0  0
    0.4130   -0.0008    0.0000 C   0  0  0  0  0  0  0  0  0  0  0  0
    0.8256    0.7137    0.0000 C   0  0  0  0  0  0  0  0  0  0  0  0
    0.4130    1.4289    0.0000 C   0  0  0  0  0  0  0  0  0  0  0  0
   -0.4122    1.4289    0.0000 C   0  0  0  0  0  0  0  0  0  0  0  0
    1.6501   -0.7152    0.0000 C   0  0  0  0  0  0  0  0  0  0  0  0
    2.0627   -0.0008    0.0000 N   0  0  0  0  0  0  0  0  0  0  0  0
    1.6501    0.7137    0.0000 C   0  0  0  0  0  0  0  0  0  0  0  0
    2.8872   -0.0008    0.0000 C   0  0  0  0  0  0  0  0  0  0  0  0
    3.2990   -0.7152    0.0000 C   0  0  0  0  0  0  0  0  0  0  0  0
    4.1245   -0.7152    0.0000 C   0  0  0  0  0  0  0  0  0  0  0  0
    4.5371   -0.0008    0.0000 C   0  0  0  0  0  0  0  0  0  0  0  0
    4.1245    0.7137    0.0000 C   0  0  0  0  0  0  0  0  0  0  0  0
    3.2990    0.7137    0.0000 C   0  0  0  0  0  0  0  0  0  0  0  0
    5.3623   -0.0008    0.0000 C   0  0  0  0  0  0  0  0  0  0  0  0
    5.7749   -0.7152    0.0000 O   0  0  0  0  0  0  0  0  0  0  0  0
    5.7749    0.7137    0.0000 O   0  0  0  0  0  0  0  0  0  0  0  0
    2.0627    1.4289    0.0000 O   0  0  0  0  0  0  0  0  0  0  0  0
    2.0627   -1.4289    0.0000 O   0  0  0  0  0  0  0  0  0  0  0  0
   -2.0627   -1.4289    0.0000 O   0  0  0  0  0  0  0  0  0  0  0  0
   -2.0627    1.4289    0.0000 O   0  0  0  0  0  0  0  0  0  0  0  0
   -0.8248    2.1433    0.0000 C   0  0  0  0  0  0  0  0  0  0  0  0
    0.8256    2.1433    0.0000 C   0  0  0  0  0  0  0  0  0  0  0  0
   -0.8248   -2.1433    0.0000 C   0  0  0  0  0  0  0  0  0  0  0  0
    0.8256   -2.1433    0.0000 C   0  0  0  0  0  0  0  0  0  0  0  0
  1  2  2  0
  2  3  1  0
  3  4  2  0
  4  5  1  0
  5  6  2  0
  6  1  1  0
  6  7  1  0
  3  8  1  0
  7  9  2  0
  7 10  1  0
  8 11  1  0
 11 12  1  0
 12 13  2  0
 13 14  1  0
 14 15  1  0
 15  8  1  0
 12 16  1  0
 16 17  2  0
 17 18  1  0
 18 19  2  0
 19 13  1  0
 19 20  1  0
 20 21  2  0
 21 22  1  0
 22 14  2  0
 18 23  1  0
 23 24  1  0
 24 25  1  0
 25 20  1  0
 24 26  1  0
 26 27  2  0
 27 28  1  0
 28 29  2  0
 29 30  1  0
 30 31  2  0
 31 26  1  0
 29 32  1  0
 32 33  2  0
 32 34  1  0
 25 35  2  0
 23 36  2  0
 11 37  2  0
 15 38  2  0
 22 39  1  0
 21 40  1  0
 16 41  1  0
 17 42  1  0
M  END
>  <Name>  (65) 
L-65

$$$$
monoMOF-ligands.sdf
     RDKit          2D

 32 36  0  0  0  0  0  0  0  0999 V2000
   -4.1245   -0.3576    0.0000 C   0  0  0  0  0  0  0  0  0  0  0  0
   -3.2998   -0.3576    0.0000 C   0  0  0  0  0  0  0  0  0  0  0  0
   -2.8872    0.3576    0.0000 C   0  0  0  0  0  0  0  0  0  0  0  0
   -3.2998    1.0720    0.0000 C   0  0  0  0  0  0  0  0  0  0  0  0
   -4.1245    1.0720    0.0000 C   0  0  0  0  0  0  0  0  0  0  0  0
   -4.5371    0.3576    0.0000 C   0  0  0  0  0  0  0  0  0  0  0  0
   -2.0620    0.3576    0.0000 C   0  0  0  0  0  0  0  0  0  0  0  0
   -5.3623    0.3576    0.0000 C   0  0  0  0  0  0  0  0  0  0  0  0
   -1.6501   -0.3576    0.0000 C   0  0  0  0  0  0  0  0  0  0  0  0
   -0.8248   -0.3576    0.0000 N   0  0  0  0  0  0  0  0  0  0  0  0
   -0.4122    0.3576    0.0000 C   0  0  0  0  0  0  0  0  0  0  0  0
   -0.8248    1.0720    0.0000 C   0  0  0  0  0  0  0  0  0  0  0  0
   -1.6501    1.0720    0.0000 C   0  0  0  0  0  0  0  0  0  0  0  0
    0.4130    0.3576    0.0000 C   0  0  0  0  0  0  0  0  0  0  0  0
    0.8248    1.0720    0.0000 C   0  0  0  0  0  0  0  0  0  0  0  0
    0.8248   -0.3576    0.0000 N   0  0  0  0  0  0  0  0  0  0  0  0
   -5.7749   -0.3576    0.0000 O   0  0  0  0  0  0  0  0  0  0  0  0
   -5.7749    1.0720    0.0000 O   0  0  0  0  0  0  0  0  0  0  0  0
    1.6501   -0.3576    0.0000 C   0  0  0  0  0  0  0  0  0  0  0  0
    2.0627    0.3576    0.0000 C   0  0  0  0  0  0  0  0  0  0  0  0
    1.6501    1.0720    0.0000 C   0  0  0  0  0  0  0  0  0  0  0  0
    2.8879    0.3576    0.0000 C   0  0  0  0  0  0  0  0  0  0  0  0
    3.2998    1.0720    0.0000 C   0  0  0  0  0  0  0  0  0  0  0  0
    3.2998   -0.3568    0.0000 C   0  0  0  0  0  0  0  0  0  0  0  0
    4.1253   -0.3568    0.0000 C   0  0  0  0  0  0  0  0  0  0  0  0
    4.5379    0.3576    0.0000 C   0  0  0  0  0  0  0  0  0  0  0  0
    4.1253    1.0720    0.0000 C   0  0  0  0  0  0  0  0  0  0  0  0
    5.3623    0.3576    0.0000 C   0  0  0  0  0  0  0  0  0  0  0  0
    5.7749    1.0720    0.0000 O   0  0  0  0  0  0  0  0  0  0  0  0
    5.7749   -0.3568    0.0000 O   0  0  0  0  0  0  0  0  0  0  0  0
   -0.4122   -1.0720    0.0000 C   0  0  0  0  0  0  0  0  0  0  0  0
    0.4122   -1.0720    0.0000 C   0  0  0  0  0  0  0  0  0  0  0  0
  1  2  2  0
  2  3  1  0
  3  4  2  0
  4  5  1  0
  5  6  2  0
  6  1  1  0
  3  7  1  0
  6  8  1  0
  7  9  2  0
  9 10  1  0
 10 11  2  0
 11 12  1  0
 12 13  2  0
 13  7  1  0
 11 14  1  0
 14 15  2  0
 14 16  1  0
  8 17  1  0
  8 18  2  0
 16 19  2  0
 19 20  1  0
 20 21  2  0
 21 15  1  0
 20 22  1  0
 22 23  2  0
 22 24  1  0
 24 25  2  0
 25 26  1  0
 26 27  2  0
 27 23  1  0
 26 28  1  0
 28 29  1  0
 28 30  2  0
 10 31  1  0
 16 32  1  0
 31 32  1  0
M  CHG  2  10   1  16   1
M  END
>  <Name>  (66) 
L-66

$$$$
monoMOF-ligands.sdf
     RDKit          2D

 32 35  0  0  0  0  0  0  0  0999 V2000
   -4.1246   -0.7150    0.0000 C   0  0  0  0  0  0  0  0  0  0  0  0
   -3.2996   -0.7150    0.0000 C   0  0  0  0  0  0  0  0  0  0  0  0
   -2.8871    0.0000    0.0000 C   0  0  0  0  0  0  0  0  0  0  0  0
   -3.2996    0.7142    0.0000 C   0  0  0  0  0  0  0  0  0  0  0  0
   -4.1246    0.7142    0.0000 C   0  0  0  0  0  0  0  0  0  0  0  0
   -4.5364    0.0000    0.0000 C   0  0  0  0  0  0  0  0  0  0  0  0
   -2.0621    0.0000    0.0000 C   0  0  0  0  0  0  0  0  0  0  0  0
   -5.3606    0.0000    0.0000 C   0  0  0  0  0  0  0  0  0  0  0  0
   -1.6496   -0.7150    0.0000 C   0  0  0  0  0  0  0  0  0  0  0  0
   -0.8246   -0.7150    0.0000 N   0  0  0  0  0  0  0  0  0  0  0  0
   -0.4121    0.0000    0.0000 C   0  0  0  0  0  0  0  0  0  0  0  0
   -0.8246    0.7142    0.0000 C   0  0  0  0  0  0  0  0  0  0  0  0
   -1.6496    0.7142    0.0000 C   0  0  0  0  0  0  0  0  0  0  0  0
    0.4129    0.0000    0.0000 C   0  0  0  0  0  0  0  0  0  0  0  0
    0.8246    0.7142    0.0000 C   0  0  0  0  0  0  0  0  0  0  0  0
    0.8246   -0.7150    0.0000 N   0  0  0  0  0  0  0  0  0  0  0  0
   -5.7731   -0.7150    0.0000 O   0  0  0  0  0  0  0  0  0  0  0  0
   -5.7731    0.7142    0.0000 O   0  0  0  0  0  0  0  0  0  0  0  0
    1.6496   -0.7150    0.0000 C   0  0  0  0  0  0  0  0  0  0  0  0
    2.0614    0.0000    0.0000 C   0  0  0  0  0  0  0  0  0  0  0  0
    1.6496    0.7142    0.0000 C   0  0  0  0  0  0  0  0  0  0  0  0
    2.8864    0.0000    0.0000 C   0  0  0  0  0  0  0  0  0  0  0  0
    3.2981    0.7142    0.0000 C   0  0  0  0  0  0  0  0  0  0  0  0
    3.2981   -0.7142    0.0000 C   0  0  0  0  0  0  0  0  0  0  0  0
    4.1231   -0.7142    0.0000 C   0  0  0  0  0  0  0  0  0  0  0  0
    4.5356    0.0000    0.0000 C   0  0  0  0  0  0  0  0  0  0  0  0
    4.1231    0.7142    0.0000 C   0  0  0  0  0  0  0  0  0  0  0  0
    5.3606    0.0000    0.0000 C   0  0  0  0  0  0  0  0  0  0  0  0
    5.7731    0.7142    0.0000 O   0  0  0  0  0  0  0  0  0  0  0  0
    5.7731   -0.7142    0.0000 O   0  0  0  0  0  0  0  0  0  0  0  0
   -2.8871    1.4285    0.0000 C   0  0  0  0  0  0  0  0  0  0  0  0
    2.8856   -1.4285    0.0000 C   0  0  0  0  0  0  0  0  0  0  0  0
  1  2  2  0
  2  3  1  0
  3  4  2  0
  4  5  1  0
  5  6  2  0
  6  1  1  0
  3  7  1  0
  6  8  1  0
  7  9  2  0
  9 10  1  0
 10 11  2  0
 11 12  1  0
 12 13  2  0
 13  7  1  0
 11 14  1  0
 14 15  2  0
 14 16  1  0
  8 17  1  0
  8 18  2  0
 16 19  2  0
 19 20  1  0
 20 21  2  0
 21 15  1  0
 20 22  1  0
 22 23  2  0
 22 24  1  0
 24 25  2  0
 25 26  1  0
 26 27  2  0
 27 23  1  0
 26 28  1  0
 28 29  1  0
 28 30  2  0
  4 31  1  0
 24 32  1  0
M  END
>  <Name>  (67) 
L-67

$$$$
monoMOF-ligands.sdf
     RDKit          2D

 36 40  0  0  0  0  0  0  0  0999 V2000
   -0.7146    0.4126    0.0000 C   0  0  0  0  0  0  0  0  0  0  0  0
   -0.7146   -0.4126    0.0000 C   0  0  0  0  0  0  0  0  0  0  0  0
    0.0004   -0.8250    0.0000 C   0  0  0  0  0  0  0  0  0  0  0  0
    0.7146   -0.4126    0.0000 C   0  0  0  0  0  0  0  0  0  0  0  0
    0.7146    0.4126    0.0000 C   0  0  0  0  0  0  0  0  0  0  0  0
    0.0004    0.8250    0.0000 C   0  0  0  0  0  0  0  0  0  0  0  0
   -1.4993    0.6676    0.0000 C   0  0  0  0  0  0  0  0  0  0  0  0
   -1.9829    0.0000    0.0000 N   0  0  0  0  0  0  0  0  0  0  0  0
   -1.4993   -0.6676    0.0000 C   0  0  0  0  0  0  0  0  0  0  0  0
    1.4993   -0.6676    0.0000 C   0  0  0  0  0  0  0  0  0  0  0  0
    1.9844    0.0000    0.0000 N   0  0  0  0  0  0  0  0  0  0  0  0
    1.4993    0.6676    0.0000 C   0  0  0  0  0  0  0  0  0  0  0  0
   -2.8079    0.0000    0.0000 C   0  0  0  0  0  0  0  0  0  0  0  0
   -3.2205    0.7142    0.0000 C   0  0  0  0  0  0  0  0  0  0  0  0
   -4.0455    0.7142    0.0000 C   0  0  0  0  0  0  0  0  0  0  0  0
   -4.4581    0.0000    0.0000 C   0  0  0  0  0  0  0  0  0  0  0  0
   -4.0455   -0.7142    0.0000 C   0  0  0  0  0  0  0  0  0  0  0  0
   -3.2205   -0.7142    0.0000 C   0  0  0  0  0  0  0  0  0  0  0  0
    2.8086    0.0000    0.0000 C   0  0  0  0  0  0  0  0  0  0  0  0
    3.2212   -0.7142    0.0000 C   0  0  0  0  0  0  0  0  0  0  0  0
    4.0462   -0.7142    0.0000 C   0  0  0  0  0  0  0  0  0  0  0  0
    4.4588    0.0000    0.0000 C   0  0  0  0  0  0  0  0  0  0  0  0
    4.0462    0.7142    0.0000 C   0  0  0  0  0  0  0  0  0  0  0  0
    3.2212    0.7142    0.0000 C   0  0  0  0  0  0  0  0  0  0  0  0
   -5.2831    0.0000    0.0000 C   0  0  0  0  0  0  0  0  0  0  0  0
    5.2838    0.0000    0.0000 C   0  0  0  0  0  0  0  0  0  0  0  0
    5.6957    0.7142    0.0000 O   0  0  0  0  0  0  0  0  0  0  0  0
    5.6957   -0.7142    0.0000 O   0  0  0  0  0  0  0  0  0  0  0  0
   -5.6957   -0.7142    0.0000 O   0  0  0  0  0  0  0  0  0  0  0  0
   -5.6957    0.7142    0.0000 O   0  0  0  0  0  0  0  0  0  0  0  0
   -1.7528    1.4524    0.0000 O   0  0  0  0  0  0  0  0  0  0  0  0
    1.7544    1.4524    0.0000 O   0  0  0  0  0  0  0  0  0  0  0  0
    1.7544   -1.4524    0.0000 O   0  0  0  0  0  0  0  0  0  0  0  0
   -1.7528   -1.4524    0.0000 O   0  0  0  0  0  0  0  0  0  0  0  0
   -2.8079    1.4287    0.0000 C   0  0  0  0  0  0  0  0  0  0  0  0
    2.8086   -1.4287    0.0000 C   0  0  0  0  0  0  0  0  0  0  0  0
  1  2  1  0
  2  3  2  0
  3  4  1  0
  4  5  2  0
  5  6  1  0
  6  1  2  0
  1  7  1  0
  7  8  1  0
  8  9  1  0
  9  2  1  0
  4 10  1  0
 10 11  1  0
 11 12  1  0
 12  5  1  0
  8 13  1  0
 13 14  2  0
 14 15  1  0
 15 16  2  0
 16 17  1  0
 17 18  2  0
 18 13  1  0
 11 19  1  0
 19 20  2  0
 20 21  1  0
 21 22  2  0
 22 23  1  0
 23 24  2  0
 24 19  1  0
 16 25  1  0
 22 26  1  0
 26 27  1  0
 26 28  2  0
 25 29  1  0
 25 30  2  0
  7 31  2  0
 12 32  2  0
 10 33  2  0
  9 34  2  0
 14 35  1  0
 20 36  1  0
M  END
>  <Name>  (68) 
L-68

$$$$
monoMOF-ligands.sdf
     RDKit          2D

 34 38  0  0  0  0  0  0  0  0999 V2000
   -4.1242   -0.7146    0.0000 C   0  0  0  0  0  0  0  0  0  0  0  0
   -3.2999   -0.7146    0.0000 C   0  0  0  0  0  0  0  0  0  0  0  0
   -2.8873    0.0004    0.0000 C   0  0  0  0  0  0  0  0  0  0  0  0
   -3.2999    0.7146    0.0000 C   0  0  0  0  0  0  0  0  0  0  0  0
   -4.1242    0.7146    0.0000 C   0  0  0  0  0  0  0  0  0  0  0  0
   -4.5368    0.0004    0.0000 C   0  0  0  0  0  0  0  0  0  0  0  0
   -2.0623    0.0004    0.0000 C   0  0  0  0  0  0  0  0  0  0  0  0
   -5.3611    0.0004    0.0000 C   0  0  0  0  0  0  0  0  0  0  0  0
   -1.6498   -0.7146    0.0000 C   0  0  0  0  0  0  0  0  0  0  0  0
   -0.8246   -0.7146    0.0000 N   0  0  0  0  0  0  0  0  0  0  0  0
   -0.4122    0.0004    0.0000 C   0  0  0  0  0  0  0  0  0  0  0  0
   -0.8246    0.7146    0.0000 C   0  0  0  0  0  0  0  0  0  0  0  0
   -1.6498    0.7146    0.0000 C   0  0  0  0  0  0  0  0  0  0  0  0
    0.4130    0.0004    0.0000 C   0  0  0  0  0  0  0  0  0  0  0  0
    0.8246    0.7146    0.0000 C   0  0  0  0  0  0  0  0  0  0  0  0
    0.8246   -0.7146    0.0000 N   0  0  0  0  0  0  0  0  0  0  0  0
   -5.7736   -0.7146    0.0000 O   0  0  0  0  0  0  0  0  0  0  0  0
   -5.7736    0.7146    0.0000 O   0  0  0  0  0  0  0  0  0  0  0  0
    1.6498   -0.7146    0.0000 C   0  0  0  0  0  0  0  0  0  0  0  0
    2.0616    0.0004    0.0000 C   0  0  0  0  0  0  0  0  0  0  0  0
    1.6498    0.7146    0.0000 C   0  0  0  0  0  0  0  0  0  0  0  0
    2.8866    0.0004    0.0000 C   0  0  0  0  0  0  0  0  0  0  0  0
    3.2984    0.7146    0.0000 C   0  0  0  0  0  0  0  0  0  0  0  0
    3.2984   -0.7139    0.0000 C   0  0  0  0  0  0  0  0  0  0  0  0
    4.1234   -0.7139    0.0000 C   0  0  0  0  0  0  0  0  0  0  0  0
    4.5360    0.0004    0.0000 C   0  0  0  0  0  0  0  0  0  0  0  0
    4.1234    0.7146    0.0000 C   0  0  0  0  0  0  0  0  0  0  0  0
    5.3611    0.0004    0.0000 C   0  0  0  0  0  0  0  0  0  0  0  0
    5.7736    0.7146    0.0000 O   0  0  0  0  0  0  0  0  0  0  0  0
    5.7736   -0.7139    0.0000 O   0  0  0  0  0  0  0  0  0  0  0  0
   -0.4122   -1.4291    0.0000 C   0  0  0  0  0  0  0  0  0  0  0  0
    0.4115   -1.4291    0.0000 C   0  0  0  0  0  0  0  0  0  0  0  0
   -2.8873    1.4291    0.0000 C   0  0  0  0  0  0  0  0  0  0  0  0
    2.8858   -1.4283    0.0000 C   0  0  0  0  0  0  0  0  0  0  0  0
  1  2  2  0
  2  3  1  0
  3  4  2  0
  4  5  1  0
  5  6  2  0
  6  1  1  0
  3  7  1  0
  6  8  1  0
  7  9  2  0
  9 10  1  0
 10 11  2  0
 11 12  1  0
 12 13  2  0
 13  7  1  0
 11 14  1  0
 14 15  2  0
 14 16  1  0
  8 17  1  0
  8 18  2  0
 16 19  2  0
 19 20  1  0
 20 21  2  0
 21 15  1  0
 20 22  1  0
 22 23  2  0
 22 24  1  0
 24 25  2  0
 25 26  1  0
 26 27  2  0
 27 23  1  0
 26 28  1  0
 28 29  1  0
 28 30  2  0
 10 31  1  0
 16 32  1  0
 31 32  1  0
  4 33  1  0
 24 34  1  0
M  CHG  2  10   1  16   1
M  END
>  <Name>  (69) 
L-69

$$$$
monoMOF-ligands.sdf
     RDKit          2D

 42 48  0  0  0  0  0  0  0  0999 V2000
   -4.2538   -0.7152    0.0000 C   0  0  0  0  0  0  0  0  0  0  0  0
   -3.4284   -0.7152    0.0000 C   0  0  0  0  0  0  0  0  0  0  0  0
   -3.0158   -0.0000    0.0000 C   0  0  0  0  0  0  0  0  0  0  0  0
   -3.4284    0.7144    0.0000 C   0  0  0  0  0  0  0  0  0  0  0  0
   -4.2538    0.7144    0.0000 C   0  0  0  0  0  0  0  0  0  0  0  0
   -4.6664   -0.0000    0.0000 C   0  0  0  0  0  0  0  0  0  0  0  0
   -2.1913   -0.0000    0.0000 C   0  0  0  0  0  0  0  0  0  0  0  0
   -1.7787   -0.7152    0.0000 C   0  0  0  0  0  0  0  0  0  0  0  0
   -0.9535   -0.7152    0.0000 N   0  0  0  0  0  0  0  0  0  0  0  0
   -0.9535    0.7144    0.0000 N   0  0  0  0  0  0  0  0  0  0  0  0
   -1.7787    0.7144    0.0000 C   0  0  0  0  0  0  0  0  0  0  0  0
   -0.6992    1.4991    0.0000 C   0  0  0  0  0  0  0  0  0  0  0  0
   -1.3661    1.9843    0.0000 C   0  0  0  0  0  0  0  0  0  0  0  0
   -2.0340    1.4991    0.0000 C   0  0  0  0  0  0  0  0  0  0  0  0
   -2.0340   -1.4998    0.0000 C   0  0  0  0  0  0  0  0  0  0  0  0
   -1.3661   -1.9843    0.0000 C   0  0  0  0  0  0  0  0  0  0  0  0
   -0.6992   -1.4998    0.0000 C   0  0  0  0  0  0  0  0  0  0  0  0
    0.9543    0.7144    0.0000 N   0  0  0  0  0  0  0  0  0  0  0  0
    0.9543   -0.7152    0.0000 N   0  0  0  0  0  0  0  0  0  0  0  0
    1.7795   -0.7152    0.0000 C   0  0  0  0  0  0  0  0  0  0  0  0
    1.7795    0.7144    0.0000 C   0  0  0  0  0  0  0  0  0  0  0  0
    2.0340    1.4991    0.0000 C   0  0  0  0  0  0  0  0  0  0  0  0
    1.3669    1.9843    0.0000 C   0  0  0  0  0  0  0  0  0  0  0  0
    0.6992    1.4991    0.0000 C   0  0  0  0  0  0  0  0  0  0  0  0
    0.6992   -1.4998    0.0000 C   0  0  0  0  0  0  0  0  0  0  0  0
    1.3669   -1.9843    0.0000 C   0  0  0  0  0  0  0  0  0  0  0  0
    2.0340   -1.4998    0.0000 C   0  0  0  0  0  0  0  0  0  0  0  0
    0.0153    1.9117    0.0000 C   0  0  0  0  0  0  0  0  0  0  0  0
    0.0153   -1.9117    0.0000 C   0  0  0  0  0  0  0  0  0  0  0  0
    2.1921   -0.0000    0.0000 C   0  0  0  0  0  0  0  0  0  0  0  0
    3.0165   -0.0000    0.0000 C   0  0  0  0  0  0  0  0  0  0  0  0
    3.4284   -0.7152    0.0000 C   0  0  0  0  0  0  0  0  0  0  0  0
    4.2530   -0.7152    0.0000 C   0  0  0  0  0  0  0  0  0  0  0  0
    4.6656   -0.0000    0.0000 C   0  0  0  0  0  0  0  0  0  0  0  0
    4.2530    0.7144    0.0000 C   0  0  0  0  0  0  0  0  0  0  0  0
    3.4284    0.7144    0.0000 C   0  0  0  0  0  0  0  0  0  0  0  0
    5.4907   -0.0000    0.0000 C   0  0  0  0  0  0  0  0  0  0  0  0
   -5.4907   -0.0000    0.0000 C   0  0  0  0  0  0  0  0  0  0  0  0
   -5.9033   -0.7152    0.0000 O   0  0  0  0  0  0  0  0  0  0  0  0
   -5.9033    0.7144    0.0000 O   0  0  0  0  0  0  0  0  0  0  0  0
    5.9033    0.7144    0.0000 O   0  0  0  0  0  0  0  0  0  0  0  0
    5.9033   -0.7152    0.0000 O   0  0  0  0  0  0  0  0  0  0  0  0
  1  2  2  0
  2  3  1  0
  3  4  2  0
  4  5  1  0
  5  6  2  0
  6  1  1  0
  3  7  1  0
  7  8  1  0
  8  9  2  0
 10 11  1  0
 11  7  2  0
 10 12  1  0
 12 13  1  0
 13 14  2  0
 14 11  1  0
  8 15  1  0
 15 16  2  0
 16 17  1  0
 17  9  1  0
 19 20  1  0
 21 18  1  0
 21 22  1  0
 22 23  2  0
 23 24  1  0
 24 18  2  0
 19 25  1  0
 25 26  2  0
 26 27  1  0
 27 20  2  0
 12 28  2  0
 28 24  1  0
 17 29  2  0
 29 25  1  0
 20 30  1  0
 30 21  2  0
 30 31  1  0
 31 32  2  0
 32 33  1  0
 33 34  2  0
 34 35  1  0
 35 36  2  0
 36 31  1  0
 34 37  1  0
  6 38  1  0
 38 39  1  0
 38 40  2  0
 37 41  1  0
 37 42  2  0
M  END
>  <Name>  (70) 
L-70

$$$$
monoMOF-ligands.sdf
     RDKit          2D

 28 30  0  0  0  0  0  0  0  0999 V2000
   -4.5370   -0.7140    0.0000 C   0  0  0  0  0  0  0  0  0  0  0  0
   -3.7119   -0.7140    0.0000 C   0  0  0  0  0  0  0  0  0  0  0  0
   -3.2991    0.0004    0.0000 C   0  0  0  0  0  0  0  0  0  0  0  0
   -3.7119    0.7140    0.0000 C   0  0  0  0  0  0  0  0  0  0  0  0
   -4.5370    0.7140    0.0000 C   0  0  0  0  0  0  0  0  0  0  0  0
   -4.9496    0.0004    0.0000 C   0  0  0  0  0  0  0  0  0  0  0  0
   -2.4746    0.0004    0.0000 C   0  0  0  0  0  0  0  0  0  0  0  0
   -1.6495    0.0004    0.0000 C   0  0  0  0  0  0  0  0  0  0  0  0
   -0.8243    0.0004    0.0000 C   0  0  0  0  0  0  0  0  0  0  0  0
   -0.4118   -0.7140    0.0000 C   0  0  0  0  0  0  0  0  0  0  0  0
    0.4118   -0.7140    0.0000 C   0  0  0  0  0  0  0  0  0  0  0  0
    0.8243    0.0004    0.0000 C   0  0  0  0  0  0  0  0  0  0  0  0
    0.4118    0.7140    0.0000 C   0  0  0  0  0  0  0  0  0  0  0  0
   -0.4118    0.7140    0.0000 C   0  0  0  0  0  0  0  0  0  0  0  0
   -5.7747    0.0004    0.0000 C   0  0  0  0  0  0  0  0  0  0  0  0
    1.6495    0.0004    0.0000 C   0  0  0  0  0  0  0  0  0  0  0  0
   -6.1873   -0.7140    0.0000 O   0  0  0  0  0  0  0  0  0  0  0  0
   -6.1873    0.7140    0.0000 O   0  0  0  0  0  0  0  0  0  0  0  0
    2.4746    0.0004    0.0000 C   0  0  0  0  0  0  0  0  0  0  0  0
    3.2998    0.0004    0.0000 C   0  0  0  0  0  0  0  0  0  0  0  0
    3.7126   -0.7140    0.0000 C   0  0  0  0  0  0  0  0  0  0  0  0
    4.5370   -0.7140    0.0000 C   0  0  0  0  0  0  0  0  0  0  0  0
    4.9496    0.0004    0.0000 C   0  0  0  0  0  0  0  0  0  0  0  0
    4.5370    0.7140    0.0000 C   0  0  0  0  0  0  0  0  0  0  0  0
    3.7126    0.7140    0.0000 C   0  0  0  0  0  0  0  0  0  0  0  0
    5.7747    0.0004    0.0000 C   0  0  0  0  0  0  0  0  0  0  0  0
    6.1873    0.7140    0.0000 O   0  0  0  0  0  0  0  0  0  0  0  0
    6.1873   -0.7140    0.0000 O   0  0  0  0  0  0  0  0  0  0  0  0
  1  2  2  0
  2  3  1  0
  3  4  2  0
  4  5  1  0
  5  6  2  0
  6  1  1  0
  3  7  1  0
  7  8  3  0
  8  9  1  0
  9 10  2  0
 10 11  1  0
 11 12  2  0
 12 13  1  0
 13 14  2  0
 14  9  1  0
  6 15  1  0
 12 16  1  0
 15 17  2  0
 15 18  1  0
 16 19  3  0
 19 20  1  0
 20 21  2  0
 21 22  1  0
 22 23  2  0
 23 24  1  0
 24 25  2  0
 25 20  1  0
 23 26  1  0
 26 27  2  0
 26 28  1  0
M  END
>  <Name>  (71) 
L-76

$$$$
monoMOF-ligands.sdf
     RDKit          2D

 36 40  0  0  0  0  0  0  0  0999 V2000
   -4.5375   -0.7148    0.0000 C   0  0  0  0  0  0  0  0  0  0  0  0
   -3.7123   -0.7148    0.0000 C   0  0  0  0  0  0  0  0  0  0  0  0
   -3.2994   -0.0004    0.0000 C   0  0  0  0  0  0  0  0  0  0  0  0
   -3.7123    0.7133    0.0000 C   0  0  0  0  0  0  0  0  0  0  0  0
   -4.5375    0.7133    0.0000 C   0  0  0  0  0  0  0  0  0  0  0  0
   -4.9501   -0.0004    0.0000 C   0  0  0  0  0  0  0  0  0  0  0  0
   -2.4749   -0.0004    0.0000 C   0  0  0  0  0  0  0  0  0  0  0  0
   -1.6497   -0.0004    0.0000 C   0  0  0  0  0  0  0  0  0  0  0  0
   -0.8244   -0.0004    0.0000 C   0  0  0  0  0  0  0  0  0  0  0  0
   -0.4118   -0.7148    0.0000 C   0  0  0  0  0  0  0  0  0  0  0  0
    0.4118   -0.7148    0.0000 C   0  0  0  0  0  0  0  0  0  0  0  0
    0.8244   -0.0004    0.0000 C   0  0  0  0  0  0  0  0  0  0  0  0
    0.4118    0.7133    0.0000 C   0  0  0  0  0  0  0  0  0  0  0  0
   -0.4118    0.7133    0.0000 C   0  0  0  0  0  0  0  0  0  0  0  0
   -5.7753   -0.0004    0.0000 C   0  0  0  0  0  0  0  0  0  0  0  0
    1.6497   -0.0004    0.0000 C   0  0  0  0  0  0  0  0  0  0  0  0
   -6.1880   -0.7148    0.0000 O   0  0  0  0  0  0  0  0  0  0  0  0
   -6.1880    0.7133    0.0000 O   0  0  0  0  0  0  0  0  0  0  0  0
    2.4749   -0.0004    0.0000 C   0  0  0  0  0  0  0  0  0  0  0  0
    3.3001   -0.0004    0.0000 C   0  0  0  0  0  0  0  0  0  0  0  0
    3.7130   -0.7148    0.0000 C   0  0  0  0  0  0  0  0  0  0  0  0
    4.5375   -0.7148    0.0000 C   0  0  0  0  0  0  0  0  0  0  0  0
    4.9501   -0.0004    0.0000 C   0  0  0  0  0  0  0  0  0  0  0  0
    4.5375    0.7133    0.0000 C   0  0  0  0  0  0  0  0  0  0  0  0
    3.7130    0.7133    0.0000 C   0  0  0  0  0  0  0  0  0  0  0  0
    5.7753   -0.0004    0.0000 C   0  0  0  0  0  0  0  0  0  0  0  0
    6.1880    0.7133    0.0000 O   0  0  0  0  0  0  0  0  0  0  0  0
    6.1880   -0.7148    0.0000 O   0  0  0  0  0  0  0  0  0  0  0  0
    0.8244    1.4285    0.0000 C   0  0  0  0  0  0  0  0  0  0  0  0
    0.4118    2.1429    0.0000 C   0  0  0  0  0  0  0  0  0  0  0  0
   -0.4118    2.1429    0.0000 C   0  0  0  0  0  0  0  0  0  0  0  0
   -0.8244    1.4285    0.0000 C   0  0  0  0  0  0  0  0  0  0  0  0
   -0.8244   -1.4293    0.0000 C   0  0  0  0  0  0  0  0  0  0  0  0
   -0.4118   -2.1429    0.0000 C   0  0  0  0  0  0  0  0  0  0  0  0
    0.4118   -2.1429    0.0000 C   0  0  0  0  0  0  0  0  0  0  0  0
    0.8244   -1.4293    0.0000 C   0  0  0  0  0  0  0  0  0  0  0  0
  1  2  2  0
  2  3  1  0
  3  4  2  0
  4  5  1  0
  5  6  2  0
  6  1  1  0
  3  7  1  0
  7  8  3  0
  8  9  1  0
  9 10  2  0
 10 11  1  0
 11 12  2  0
 12 13  1  0
 13 14  1  0
 14  9  1  0
  6 15  1  0
 12 16  1  0
 15 17  2  0
 15 18  1  0
 16 19  3  0
 19 20  1  0
 20 21  2  0
 21 22  1  0
 22 23  2  0
 23 24  1  0
 24 25  2  0
 25 20  1  0
 23 26  1  0
 26 27  2  0
 26 28  1  0
 13 29  2  0
 29 30  1  0
 30 31  2  0
 31 32  1  0
 32 14  2  0
 10 33  1  0
 33 34  2  0
 34 35  1  0
 35 36  2  0
 36 11  1  0
M  END
>  <Name>  (72) 
L-77

$$$$
monoMOF-ligands.sdf
     RDKit          2D

 42 46  0  0  0  0  0  0  0  0999 V2000
   -5.3623   -0.7143    0.0000 C   0  0  0  0  0  0  0  0  0  0  0  0
   -4.5381   -0.7143    0.0000 C   0  0  0  0  0  0  0  0  0  0  0  0
   -4.1255    0.0008    0.0000 C   0  0  0  0  0  0  0  0  0  0  0  0
   -4.5381    0.7143    0.0000 C   0  0  0  0  0  0  0  0  0  0  0  0
   -5.3623    0.7143    0.0000 C   0  0  0  0  0  0  0  0  0  0  0  0
   -5.7741    0.0008    0.0000 C   0  0  0  0  0  0  0  0  0  0  0  0
   -3.3004    0.0008    0.0000 C   0  0  0  0  0  0  0  0  0  0  0  0
   -6.5985    0.0008    0.0000 C   0  0  0  0  0  0  0  0  0  0  0  0
   -2.8878   -0.7143    0.0000 C   0  0  0  0  0  0  0  0  0  0  0  0
   -2.0627   -0.7143    0.0000 C   0  0  0  0  0  0  0  0  0  0  0  0
   -1.6503    0.0008    0.0000 C   0  0  0  0  0  0  0  0  0  0  0  0
   -2.0627    0.7143    0.0000 C   0  0  0  0  0  0  0  0  0  0  0  0
   -2.8878    0.7143    0.0000 C   0  0  0  0  0  0  0  0  0  0  0  0
   -0.8251    0.0008    0.0000 C   0  0  0  0  0  0  0  0  0  0  0  0
   -0.4126    0.7143    0.0000 C   0  0  0  0  0  0  0  0  0  0  0  0
   -0.4126   -0.7143    0.0000 C   0  0  0  0  0  0  0  0  0  0  0  0
   -7.0111   -0.7143    0.0000 O   0  0  0  0  0  0  0  0  0  0  0  0
   -7.0111    0.7143    0.0000 O   0  0  0  0  0  0  0  0  0  0  0  0
    0.4126   -0.7143    0.0000 C   0  0  0  0  0  0  0  0  0  0  0  0
    0.8251    0.0008    0.0000 C   0  0  0  0  0  0  0  0  0  0  0  0
    0.4126    0.7143    0.0000 C   0  0  0  0  0  0  0  0  0  0  0  0
    1.6495    0.0008    0.0000 C   0  0  0  0  0  0  0  0  0  0  0  0
    2.0612    0.7143    0.0000 C   0  0  0  0  0  0  0  0  0  0  0  0
    2.0612   -0.7136    0.0000 C   0  0  0  0  0  0  0  0  0  0  0  0
    2.8855   -0.7136    0.0000 C   0  0  0  0  0  0  0  0  0  0  0  0
    3.2981    0.0008    0.0000 C   0  0  0  0  0  0  0  0  0  0  0  0
    2.8855    0.7143    0.0000 C   0  0  0  0  0  0  0  0  0  0  0  0
    4.1232    0.0008    0.0000 C   0  0  0  0  0  0  0  0  0  0  0  0
    4.5358    0.7143    0.0000 C   0  0  0  0  0  0  0  0  0  0  0  0
    4.5358   -0.7136    0.0000 C   0  0  0  0  0  0  0  0  0  0  0  0
    5.3608   -0.7136    0.0000 C   0  0  0  0  0  0  0  0  0  0  0  0
    5.7733    0.0008    0.0000 C   0  0  0  0  0  0  0  0  0  0  0  0
    5.3608    0.7143    0.0000 C   0  0  0  0  0  0  0  0  0  0  0  0
    6.5985    0.0008    0.0000 C   0  0  0  0  0  0  0  0  0  0  0  0
    7.0111   -0.7136    0.0000 O   0  0  0  0  0  0  0  0  0  0  0  0
    7.0111    0.7143    0.0000 O   0  0  0  0  0  0  0  0  0  0  0  0
   -1.6503    1.4288    0.0000 C   0  0  0  0  0  0  0  0  0  0  0  0
   -3.3004   -1.4288    0.0000 C   0  0  0  0  0  0  0  0  0  0  0  0
   -0.8251   -1.4288    0.0000 C   0  0  0  0  0  0  0  0  0  0  0  0
    0.8251    1.4288    0.0000 C   0  0  0  0  0  0  0  0  0  0  0  0
    3.2981    1.4288    0.0000 C   0  0  0  0  0  0  0  0  0  0  0  0
    1.6495   -1.4288    0.0000 C   0  0  0  0  0  0  0  0  0  0  0  0
  1  2  2  0
  2  3  1  0
  3  4  2  0
  4  5  1  0
  5  6  2  0
  6  1  1  0
  3  7  1  0
  6  8  1  0
  7  9  2  0
  9 10  1  0
 10 11  2  0
 11 12  1  0
 12 13  2  0
 13  7  1  0
 11 14  1  0
 14 15  2  0
 14 16  1  0
  8 17  1  0
  8 18  2  0
 16 19  2  0
 19 20  1  0
 20 21  2  0
 21 15  1  0
 20 22  1  0
 22 23  2  0
 22 24  1  0
 24 25  2  0
 25 26  1  0
 26 27  2  0
 27 23  1  0
 26 28  1  0
 28 29  2  0
 28 30  1  0
 30 31  2  0
 31 32  1  0
 32 33  2  0
 33 29  1  0
 32 34  1  0
 34 35  2  0
 34 36  1  0
 12 37  1  0
  9 38  1  0
 16 39  1  0
 21 40  1  0
 27 41  1  0
 24 42  1  0
M  END
>  <Name>  (73) 
L-78

$$$$
monoMOF-ligands.sdf
     RDKit          2D

 52 60  0  0  0  0  0  0  0  0999 V2000
   -5.3619   -0.7151    0.0000 C   0  0  0  0  0  0  0  0  0  0  0  0
   -4.5374   -0.7151    0.0000 C   0  0  0  0  0  0  0  0  0  0  0  0
   -4.1248   -0.0008    0.0000 C   0  0  0  0  0  0  0  0  0  0  0  0
   -4.5374    0.7136    0.0000 C   0  0  0  0  0  0  0  0  0  0  0  0
   -5.3619    0.7136    0.0000 C   0  0  0  0  0  0  0  0  0  0  0  0
   -5.7744   -0.0008    0.0000 C   0  0  0  0  0  0  0  0  0  0  0  0
   -6.5988   -0.0008    0.0000 C   0  0  0  0  0  0  0  0  0  0  0  0
   -3.2997   -0.0008    0.0000 N   0  0  0  0  0  0  0  0  0  0  0  0
   -7.0114    0.7136    0.0000 O   0  0  0  0  0  0  0  0  0  0  0  0
   -7.0114   -0.7151    0.0000 O   0  0  0  0  0  0  0  0  0  0  0  0
   -2.8879   -0.7151    0.0000 C   0  0  0  0  0  0  0  0  0  0  0  0
   -2.0629   -0.7151    0.0000 C   0  0  0  0  0  0  0  0  0  0  0  0
   -1.6503   -0.0008    0.0000 C   0  0  0  0  0  0  0  0  0  0  0  0
   -2.0629    0.7136    0.0000 C   0  0  0  0  0  0  0  0  0  0  0  0
   -2.8879    0.7136    0.0000 C   0  0  0  0  0  0  0  0  0  0  0  0
   -1.6503   -1.4280    0.0000 C   0  0  0  0  0  0  0  0  0  0  0  0
   -0.8251   -1.4280    0.0000 C   0  0  0  0  0  0  0  0  0  0  0  0
   -0.4126   -0.7151    0.0000 C   0  0  0  0  0  0  0  0  0  0  0  0
   -0.8251   -0.0008    0.0000 C   0  0  0  0  0  0  0  0  0  0  0  0
   -0.4126    0.7136    0.0000 C   0  0  0  0  0  0  0  0  0  0  0  0
   -0.8251    1.4288    0.0000 C   0  0  0  0  0  0  0  0  0  0  0  0
   -1.6503    1.4288    0.0000 C   0  0  0  0  0  0  0  0  0  0  0  0
    0.4126   -0.7151    0.0000 C   0  0  0  0  0  0  0  0  0  0  0  0
    0.8251   -0.0008    0.0000 C   0  0  0  0  0  0  0  0  0  0  0  0
    0.4126    0.7136    0.0000 C   0  0  0  0  0  0  0  0  0  0  0  0
    1.6494   -0.0008    0.0000 C   0  0  0  0  0  0  0  0  0  0  0  0
    2.0614   -0.7151    0.0000 C   0  0  0  0  0  0  0  0  0  0  0  0
    2.8864   -0.7151    0.0000 C   0  0  0  0  0  0  0  0  0  0  0  0
    3.2990   -0.0008    0.0000 N   0  0  0  0  0  0  0  0  0  0  0  0
    2.8864    0.7136    0.0000 C   0  0  0  0  0  0  0  0  0  0  0  0
    2.0614    0.7136    0.0000 C   0  0  0  0  0  0  0  0  0  0  0  0
    4.1233   -0.0008    0.0000 C   0  0  0  0  0  0  0  0  0  0  0  0
    4.5359   -0.7151    0.0000 C   0  0  0  0  0  0  0  0  0  0  0  0
    4.5359    0.7136    0.0000 C   0  0  0  0  0  0  0  0  0  0  0  0
    0.8251    1.4288    0.0000 C   0  0  0  0  0  0  0  0  0  0  0  0
    0.8251   -1.4280    0.0000 C   0  0  0  0  0  0  0  0  0  0  0  0
   -3.2997   -1.4280    0.0000 O   0  0  0  0  0  0  0  0  0  0  0  0
   -3.2997    1.4288    0.0000 O   0  0  0  0  0  0  0  0  0  0  0  0
    1.6494   -1.4280    0.0000 C   0  0  0  0  0  0  0  0  0  0  0  0
    1.6494    1.4288    0.0000 C   0  0  0  0  0  0  0  0  0  0  0  0
    3.2990    1.4288    0.0000 O   0  0  0  0  0  0  0  0  0  0  0  0
    3.2990   -1.4280    0.0000 O   0  0  0  0  0  0  0  0  0  0  0  0
    5.3611   -0.7151    0.0000 C   0  0  0  0  0  0  0  0  0  0  0  0
    5.7736   -0.0008    0.0000 C   0  0  0  0  0  0  0  0  0  0  0  0
    5.3611    0.7136    0.0000 C   0  0  0  0  0  0  0  0  0  0  0  0
    6.5988   -0.0008    0.0000 C   0  0  0  0  0  0  0  0  0  0  0  0
    7.0114    0.7136    0.0000 O   0  0  0  0  0  0  0  0  0  0  0  0
    7.0114   -0.7151    0.0000 O   0  0  0  0  0  0  0  0  0  0  0  0
   -0.4126    2.1431    0.0000 Cl  0  0  0  0  0  0  0  0  0  0  0  0
    0.4118    2.1431    0.0000 Cl  0  0  0  0  0  0  0  0  0  0  0  0
    0.4126   -2.1431    0.0000 Cl  0  0  0  0  0  0  0  0  0  0  0  0
   -0.4126   -2.1431    0.0000 Cl  0  0  0  0  0  0  0  0  0  0  0  0
  1  2  2  0
  2  3  1  0
  3  4  2  0
  4  5  1  0
  5  6  2  0
  6  1  1  0
  6  7  1  0
  3  8  1  0
  7  9  2  0
  7 10  1  0
  8 11  1  0
 11 12  1  0
 12 13  2  0
 13 14  1  0
 14 15  1  0
 15  8  1  0
 12 16  1  0
 16 17  2  0
 17 18  1  0
 18 19  2  0
 19 13  1  0
 19 20  1  0
 20 21  2  0
 21 22  1  0
 22 14  2  0
 18 23  1  0
 23 24  2  0
 24 25  1  0
 25 20  1  0
 24 26  1  0
 26 27  2  0
 27 28  1  0
 29 30  1  0
 31 26  1  0
 29 32  1  0
 32 33  2  0
 32 34  1  0
 25 35  2  0
 23 36  1  0
 11 37  2  0
 15 38  2  0
 36 39  2  0
 39 27  1  0
 31 40  2  0
 40 35  1  0
 31 30  1  0
 29 28  1  0
 30 41  2  0
 28 42  2  0
 33 43  1  0
 43 44  2  0
 44 45  1  0
 45 34  2  0
 44 46  1  0
 46 47  1  0
 46 48  2  0
 21 49  1  0
 35 50  1  0
 36 51  1  0
 17 52  1  0
M  END
>  <Name>  (74) 
L-79

$$$$
monoMOF-ligands.sdf
     RDKit          2D

 54 62  0  0  0  0  0  0  0  0999 V2000
   -5.3622   -0.7148    0.0000 C   0  0  0  0  0  0  0  0  0  0  0  0
   -4.5376   -0.7148    0.0000 C   0  0  0  0  0  0  0  0  0  0  0  0
   -4.1250   -0.0004    0.0000 C   0  0  0  0  0  0  0  0  0  0  0  0
   -4.5376    0.7141    0.0000 C   0  0  0  0  0  0  0  0  0  0  0  0
   -5.3622    0.7141    0.0000 C   0  0  0  0  0  0  0  0  0  0  0  0
   -5.7746   -0.0004    0.0000 C   0  0  0  0  0  0  0  0  0  0  0  0
   -6.5991   -0.0004    0.0000 C   0  0  0  0  0  0  0  0  0  0  0  0
   -3.2998   -0.0004    0.0000 N   0  0  0  0  0  0  0  0  0  0  0  0
   -7.0117    0.7141    0.0000 O   0  0  0  0  0  0  0  0  0  0  0  0
   -7.0117   -0.7148    0.0000 O   0  0  0  0  0  0  0  0  0  0  0  0
   -2.8881   -0.7148    0.0000 C   0  0  0  0  0  0  0  0  0  0  0  0
   -2.0630   -0.7148    0.0000 C   0  0  0  0  0  0  0  0  0  0  0  0
   -1.6503   -0.0004    0.0000 C   0  0  0  0  0  0  0  0  0  0  0  0
   -2.0630    0.7141    0.0000 C   0  0  0  0  0  0  0  0  0  0  0  0
   -2.8881    0.7141    0.0000 C   0  0  0  0  0  0  0  0  0  0  0  0
   -1.6503   -1.4284    0.0000 C   0  0  0  0  0  0  0  0  0  0  0  0
   -0.8252   -1.4284    0.0000 C   0  0  0  0  0  0  0  0  0  0  0  0
   -0.4126   -0.7148    0.0000 C   0  0  0  0  0  0  0  0  0  0  0  0
   -0.8252   -0.0004    0.0000 C   0  0  0  0  0  0  0  0  0  0  0  0
   -0.4126    0.7141    0.0000 C   0  0  0  0  0  0  0  0  0  0  0  0
   -0.8252    1.4292    0.0000 C   0  0  0  0  0  0  0  0  0  0  0  0
   -1.6503    1.4292    0.0000 C   0  0  0  0  0  0  0  0  0  0  0  0
    0.4126   -0.7148    0.0000 C   0  0  0  0  0  0  0  0  0  0  0  0
    0.8252   -0.0004    0.0000 C   0  0  0  0  0  0  0  0  0  0  0  0
    0.4126    0.7141    0.0000 C   0  0  0  0  0  0  0  0  0  0  0  0
    1.6495   -0.0004    0.0000 C   0  0  0  0  0  0  0  0  0  0  0  0
    2.0615   -0.7148    0.0000 C   0  0  0  0  0  0  0  0  0  0  0  0
    2.8866   -0.7148    0.0000 C   0  0  0  0  0  0  0  0  0  0  0  0
    3.2991   -0.0004    0.0000 N   0  0  0  0  0  0  0  0  0  0  0  0
    2.8866    0.7141    0.0000 C   0  0  0  0  0  0  0  0  0  0  0  0
    2.0615    0.7141    0.0000 C   0  0  0  0  0  0  0  0  0  0  0  0
    4.1235   -0.0004    0.0000 C   0  0  0  0  0  0  0  0  0  0  0  0
    4.5361   -0.7148    0.0000 C   0  0  0  0  0  0  0  0  0  0  0  0
    4.5361    0.7141    0.0000 C   0  0  0  0  0  0  0  0  0  0  0  0
    0.8252    1.4292    0.0000 C   0  0  0  0  0  0  0  0  0  0  0  0
    0.8252   -1.4284    0.0000 C   0  0  0  0  0  0  0  0  0  0  0  0
   -3.2998   -1.4284    0.0000 O   0  0  0  0  0  0  0  0  0  0  0  0
   -3.2998    1.4292    0.0000 O   0  0  0  0  0  0  0  0  0  0  0  0
    1.6495   -1.4284    0.0000 C   0  0  0  0  0  0  0  0  0  0  0  0
    1.6495    1.4292    0.0000 C   0  0  0  0  0  0  0  0  0  0  0  0
    3.2991    1.4292    0.0000 O   0  0  0  0  0  0  0  0  0  0  0  0
    3.2991   -1.4284    0.0000 O   0  0  0  0  0  0  0  0  0  0  0  0
    5.3614   -0.7148    0.0000 C   0  0  0  0  0  0  0  0  0  0  0  0
    5.7738   -0.0004    0.0000 C   0  0  0  0  0  0  0  0  0  0  0  0
    5.3614    0.7141    0.0000 C   0  0  0  0  0  0  0  0  0  0  0  0
    6.5991   -0.0004    0.0000 C   0  0  0  0  0  0  0  0  0  0  0  0
    7.0117    0.7141    0.0000 O   0  0  0  0  0  0  0  0  0  0  0  0
    7.0117   -0.7148    0.0000 O   0  0  0  0  0  0  0  0  0  0  0  0
   -0.4126    2.1436    0.0000 Cl  0  0  0  0  0  0  0  0  0  0  0  0
    0.4118    2.1436    0.0000 Cl  0  0  0  0  0  0  0  0  0  0  0  0
    0.4126   -2.1436    0.0000 Cl  0  0  0  0  0  0  0  0  0  0  0  0
   -0.4126   -2.1436    0.0000 Cl  0  0  0  0  0  0  0  0  0  0  0  0
   -4.1250    1.4284    0.0000 C   0  0  0  0  0  0  0  0  0  0  0  0
    4.1243    1.4284    0.0000 C   0  0  0  0  0  0  0  0  0  0  0  0
  1  2  2  0
  2  3  1  0
  3  4  2  0
  4  5  1  0
  5  6  2  0
  6  1  1  0
  6  7  1  0
  3  8  1  0
  7  9  2  0
  7 10  1  0
  8 11  1  0
 11 12  1  0
 12 13  2  0
 13 14  1  0
 14 15  1  0
 15  8  1  0
 12 16  1  0
 16 17  2  0
 17 18  1  0
 18 19  2  0
 19 13  1  0
 19 20  1  0
 20 21  2  0
 21 22  1  0
 22 14  2  0
 18 23  1  0
 23 24  2  0
 24 25  1  0
 25 20  1  0
 24 26  1  0
 26 27  2  0
 27 28  1  0
 29 30  1  0
 31 26  1  0
 29 32  1  0
 32 33  2  0
 32 34  1  0
 25 35  2  0
 23 36  1  0
 11 37  2  0
 15 38  2  0
 36 39  2  0
 39 27  1  0
 31 40  2  0
 40 35  1  0
 31 30  1  0
 29 28  1  0
 30 41  2  0
 28 42  2  0
 33 43  1  0
 43 44  2  0
 44 45  1  0
 45 34  2  0
 44 46  1  0
 46 47  1  0
 46 48  2  0
 21 49  1  0
 35 50  1  0
 36 51  1  0
 17 52  1  0
  4 53  1  0
 34 54  1  0
M  END
>  <Name>  (75) 
L-80

$$$$
monoMOF-ligands.sdf
     RDKit          2D

 56 64  0  0  0  0  0  0  0  0999 V2000
   -5.3629   -0.7147    0.0000 C   0  0  0  0  0  0  0  0  0  0  0  0
   -4.5385   -0.7147    0.0000 C   0  0  0  0  0  0  0  0  0  0  0  0
   -4.1259   -0.0004    0.0000 C   0  0  0  0  0  0  0  0  0  0  0  0
   -4.5385    0.7140    0.0000 C   0  0  0  0  0  0  0  0  0  0  0  0
   -5.3629    0.7140    0.0000 C   0  0  0  0  0  0  0  0  0  0  0  0
   -5.7754   -0.0004    0.0000 C   0  0  0  0  0  0  0  0  0  0  0  0
   -6.5991   -0.0004    0.0000 C   0  0  0  0  0  0  0  0  0  0  0  0
   -3.3006   -0.0004    0.0000 N   0  0  0  0  0  0  0  0  0  0  0  0
   -7.0117    0.7140    0.0000 O   0  0  0  0  0  0  0  0  0  0  0  0
   -7.0117   -0.7147    0.0000 O   0  0  0  0  0  0  0  0  0  0  0  0
   -2.8880   -0.7147    0.0000 C   0  0  0  0  0  0  0  0  0  0  0  0
   -2.0629   -0.7147    0.0000 C   0  0  0  0  0  0  0  0  0  0  0  0
   -1.6503   -0.0004    0.0000 C   0  0  0  0  0  0  0  0  0  0  0  0
   -2.0629    0.7140    0.0000 C   0  0  0  0  0  0  0  0  0  0  0  0
   -2.8880    0.7140    0.0000 C   0  0  0  0  0  0  0  0  0  0  0  0
   -1.6503   -1.4284    0.0000 C   0  0  0  0  0  0  0  0  0  0  0  0
   -0.8251   -1.4284    0.0000 C   0  0  0  0  0  0  0  0  0  0  0  0
   -0.4126   -0.7147    0.0000 C   0  0  0  0  0  0  0  0  0  0  0  0
   -0.8251   -0.0004    0.0000 C   0  0  0  0  0  0  0  0  0  0  0  0
   -0.4126    0.7140    0.0000 C   0  0  0  0  0  0  0  0  0  0  0  0
   -0.8251    1.4292    0.0000 C   0  0  0  0  0  0  0  0  0  0  0  0
   -1.6503    1.4292    0.0000 C   0  0  0  0  0  0  0  0  0  0  0  0
    0.4126   -0.7147    0.0000 C   0  0  0  0  0  0  0  0  0  0  0  0
    0.8243   -0.0004    0.0000 C   0  0  0  0  0  0  0  0  0  0  0  0
    0.4126    0.7140    0.0000 C   0  0  0  0  0  0  0  0  0  0  0  0
    1.6488   -0.0004    0.0000 C   0  0  0  0  0  0  0  0  0  0  0  0
    2.0606   -0.7147    0.0000 C   0  0  0  0  0  0  0  0  0  0  0  0
    2.8857   -0.7147    0.0000 C   0  0  0  0  0  0  0  0  0  0  0  0
    3.2983   -0.0004    0.0000 N   0  0  0  0  0  0  0  0  0  0  0  0
    2.8857    0.7140    0.0000 C   0  0  0  0  0  0  0  0  0  0  0  0
    2.0606    0.7140    0.0000 C   0  0  0  0  0  0  0  0  0  0  0  0
    4.1236   -0.0004    0.0000 C   0  0  0  0  0  0  0  0  0  0  0  0
    4.5362   -0.7147    0.0000 C   0  0  0  0  0  0  0  0  0  0  0  0
    4.5362    0.7140    0.0000 C   0  0  0  0  0  0  0  0  0  0  0  0
    0.8243    1.4292    0.0000 C   0  0  0  0  0  0  0  0  0  0  0  0
    0.8243   -1.4284    0.0000 C   0  0  0  0  0  0  0  0  0  0  0  0
   -3.3006   -1.4284    0.0000 O   0  0  0  0  0  0  0  0  0  0  0  0
   -3.3006    1.4292    0.0000 O   0  0  0  0  0  0  0  0  0  0  0  0
    1.6488   -1.4284    0.0000 C   0  0  0  0  0  0  0  0  0  0  0  0
    1.6488    1.4292    0.0000 C   0  0  0  0  0  0  0  0  0  0  0  0
    3.2983    1.4292    0.0000 O   0  0  0  0  0  0  0  0  0  0  0  0
    3.2983   -1.4284    0.0000 O   0  0  0  0  0  0  0  0  0  0  0  0
    5.3614   -0.7147    0.0000 C   0  0  0  0  0  0  0  0  0  0  0  0
    5.7739   -0.0004    0.0000 C   0  0  0  0  0  0  0  0  0  0  0  0
    5.3614    0.7140    0.0000 C   0  0  0  0  0  0  0  0  0  0  0  0
    6.5991   -0.0004    0.0000 C   0  0  0  0  0  0  0  0  0  0  0  0
    7.0117    0.7140    0.0000 O   0  0  0  0  0  0  0  0  0  0  0  0
    7.0117   -0.7147    0.0000 O   0  0  0  0  0  0  0  0  0  0  0  0
   -0.4126    2.1435    0.0000 Cl  0  0  0  0  0  0  0  0  0  0  0  0
    0.4118    2.1435    0.0000 Cl  0  0  0  0  0  0  0  0  0  0  0  0
    0.4126   -2.1435    0.0000 Cl  0  0  0  0  0  0  0  0  0  0  0  0
   -0.4126   -2.1435    0.0000 Cl  0  0  0  0  0  0  0  0  0  0  0  0
   -4.1259    1.4284    0.0000 C   0  0  0  0  0  0  0  0  0  0  0  0
    4.1236    1.4284    0.0000 C   0  0  0  0  0  0  0  0  0  0  0  0
   -4.1259   -1.4292    0.0000 C   0  0  0  0  0  0  0  0  0  0  0  0
    4.1236   -1.4292    0.0000 C   0  0  0  0  0  0  0  0  0  0  0  0
  1  2  2  0
  2  3  1  0
  3  4  2  0
  4  5  1  0
  5  6  2  0
  6  1  1  0
  6  7  1  0
  3  8  1  0
  7  9  2  0
  7 10  1  0
  8 11  1  0
 11 12  1  0
 12 13  2  0
 13 14  1  0
 14 15  1  0
 15  8  1  0
 12 16  1  0
 16 17  2  0
 17 18  1  0
 18 19  2  0
 19 13  1  0
 19 20  1  0
 20 21  2  0
 21 22  1  0
 22 14  2  0
 18 23  1  0
 23 24  2  0
 24 25  1  0
 25 20  1  0
 24 26  1  0
 26 27  2  0
 27 28  1  0
 29 30  1  0
 31 26  1  0
 29 32  1  0
 32 33  2  0
 32 34  1  0
 25 35  2  0
 23 36  1  0
 11 37  2  0
 15 38  2  0
 36 39  2  0
 39 27  1  0
 31 40  2  0
 40 35  1  0
 31 30  1  0
 29 28  1  0
 30 41  2  0
 28 42  2  0
 33 43  1  0
 43 44  2  0
 44 45  1  0
 45 34  2  0
 44 46  1  0
 46 47  1  0
 46 48  2  0
 21 49  1  0
 35 50  1  0
 36 51  1  0
 17 52  1  0
  4 53  1  0
 34 54  1  0
  2 55  1  0
 33 56  1  0
M  END
>  <Name>  (76) 
L-81

$$$$
monoMOF-ligands.sdf
     RDKit          2D

 56 64  0  0  0  0  0  0  0  0999 V2000
   -5.3629   -0.7148    0.0000 C   0  0  0  0  0  0  0  0  0  0  0  0
   -4.5385   -0.7148    0.0000 C   0  0  0  0  0  0  0  0  0  0  0  0
   -4.1259   -0.0004    0.0000 C   0  0  0  0  0  0  0  0  0  0  0  0
   -4.5385    0.7141    0.0000 C   0  0  0  0  0  0  0  0  0  0  0  0
   -5.3629    0.7141    0.0000 C   0  0  0  0  0  0  0  0  0  0  0  0
   -5.7754   -0.0004    0.0000 C   0  0  0  0  0  0  0  0  0  0  0  0
   -6.5992   -0.0004    0.0000 C   0  0  0  0  0  0  0  0  0  0  0  0
   -3.3007   -0.0004    0.0000 N   0  0  0  0  0  0  0  0  0  0  0  0
   -7.0118    0.7141    0.0000 O   0  0  0  0  0  0  0  0  0  0  0  0
   -7.0118   -0.7148    0.0000 O   0  0  0  0  0  0  0  0  0  0  0  0
   -2.8881   -0.7148    0.0000 C   0  0  0  0  0  0  0  0  0  0  0  0
   -2.0630   -0.7148    0.0000 C   0  0  0  0  0  0  0  0  0  0  0  0
   -1.6503   -0.0004    0.0000 C   0  0  0  0  0  0  0  0  0  0  0  0
   -2.0630    0.7141    0.0000 C   0  0  0  0  0  0  0  0  0  0  0  0
   -2.8881    0.7141    0.0000 C   0  0  0  0  0  0  0  0  0  0  0  0
   -1.6503   -1.4285    0.0000 C   0  0  0  0  0  0  0  0  0  0  0  0
   -0.8252   -1.4285    0.0000 C   0  0  0  0  0  0  0  0  0  0  0  0
   -0.4126   -0.7148    0.0000 C   0  0  0  0  0  0  0  0  0  0  0  0
   -0.8252   -0.0004    0.0000 C   0  0  0  0  0  0  0  0  0  0  0  0
   -0.4126    0.7141    0.0000 C   0  0  0  0  0  0  0  0  0  0  0  0
   -0.8252    1.4293    0.0000 C   0  0  0  0  0  0  0  0  0  0  0  0
   -1.6503    1.4293    0.0000 C   0  0  0  0  0  0  0  0  0  0  0  0
    0.4126   -0.7148    0.0000 C   0  0  0  0  0  0  0  0  0  0  0  0
    0.8244   -0.0004    0.0000 C   0  0  0  0  0  0  0  0  0  0  0  0
    0.4126    0.7141    0.0000 C   0  0  0  0  0  0  0  0  0  0  0  0
    1.6488   -0.0004    0.0000 C   0  0  0  0  0  0  0  0  0  0  0  0
    2.0607   -0.7148    0.0000 C   0  0  0  0  0  0  0  0  0  0  0  0
    2.8858   -0.7148    0.0000 C   0  0  0  0  0  0  0  0  0  0  0  0
    3.2984   -0.0004    0.0000 N   0  0  0  0  0  0  0  0  0  0  0  0
    2.8858    0.7141    0.0000 C   0  0  0  0  0  0  0  0  0  0  0  0
    2.0607    0.7141    0.0000 C   0  0  0  0  0  0  0  0  0  0  0  0
    4.1236   -0.0004    0.0000 C   0  0  0  0  0  0  0  0  0  0  0  0
    4.5362   -0.7148    0.0000 C   0  0  0  0  0  0  0  0  0  0  0  0
    4.5362    0.7141    0.0000 C   0  0  0  0  0  0  0  0  0  0  0  0
    0.8244    1.4293    0.0000 C   0  0  0  0  0  0  0  0  0  0  0  0
    0.8244   -1.4285    0.0000 C   0  0  0  0  0  0  0  0  0  0  0  0
   -3.3007   -1.4285    0.0000 O   0  0  0  0  0  0  0  0  0  0  0  0
   -3.3007    1.4293    0.0000 O   0  0  0  0  0  0  0  0  0  0  0  0
    1.6488   -1.4285    0.0000 C   0  0  0  0  0  0  0  0  0  0  0  0
    1.6488    1.4293    0.0000 C   0  0  0  0  0  0  0  0  0  0  0  0
    3.2984    1.4293    0.0000 O   0  0  0  0  0  0  0  0  0  0  0  0
    3.2984   -1.4285    0.0000 O   0  0  0  0  0  0  0  0  0  0  0  0
    5.3614   -0.7148    0.0000 C   0  0  0  0  0  0  0  0  0  0  0  0
    5.7739   -0.0004    0.0000 C   0  0  0  0  0  0  0  0  0  0  0  0
    5.3614    0.7141    0.0000 C   0  0  0  0  0  0  0  0  0  0  0  0
    6.5992   -0.0004    0.0000 C   0  0  0  0  0  0  0  0  0  0  0  0
    7.0118    0.7141    0.0000 O   0  0  0  0  0  0  0  0  0  0  0  0
    7.0118   -0.7148    0.0000 O   0  0  0  0  0  0  0  0  0  0  0  0
   -0.4126    2.1436    0.0000 Cl  0  0  0  0  0  0  0  0  0  0  0  0
    0.4118    2.1436    0.0000 Cl  0  0  0  0  0  0  0  0  0  0  0  0
    0.4126   -2.1436    0.0000 Cl  0  0  0  0  0  0  0  0  0  0  0  0
   -0.4126   -2.1436    0.0000 Cl  0  0  0  0  0  0  0  0  0  0  0  0
   -4.1259    1.4285    0.0000 O   0  0  0  0  0  0  0  0  0  0  0  0
    4.1236    1.4285    0.0000 O   0  0  0  0  0  0  0  0  0  0  0  0
   -4.5385    2.1428    0.0000 C   0  0  0  0  0  0  0  0  0  0  0  0
    4.5362    2.1428    0.0000 C   0  0  0  0  0  0  0  0  0  0  0  0
  1  2  2  0
  2  3  1  0
  3  4  2  0
  4  5  1  0
  5  6  2  0
  6  1  1  0
  6  7  1  0
  3  8  1  0
  7  9  2  0
  7 10  1  0
  8 11  1  0
 11 12  1  0
 12 13  2  0
 13 14  1  0
 14 15  1  0
 15  8  1  0
 12 16  1  0
 16 17  2  0
 17 18  1  0
 18 19  2  0
 19 13  1  0
 19 20  1  0
 20 21  2  0
 21 22  1  0
 22 14  2  0
 18 23  1  0
 23 24  2  0
 24 25  1  0
 25 20  1  0
 24 26  1  0
 26 27  2  0
 27 28  1  0
 29 30  1  0
 31 26  1  0
 29 32  1  0
 32 33  2  0
 32 34  1  0
 25 35  2  0
 23 36  1  0
 11 37  2  0
 15 38  2  0
 36 39  2  0
 39 27  1  0
 31 40  2  0
 40 35  1  0
 31 30  1  0
 29 28  1  0
 30 41  2  0
 28 42  2  0
 33 43  1  0
 43 44  2  0
 44 45  1  0
 45 34  2  0
 44 46  1  0
 46 47  1  0
 46 48  2  0
 21 49  1  0
 35 50  1  0
 36 51  1  0
 17 52  1  0
  4 53  1  0
 34 54  1  0
 53 55  1  0
 54 56  1  0
M  END
>  <Name>  (77) 
L-82

$$$$
monoMOF-ligands.sdf
     RDKit          2D

 54 62  0  0  0  0  0  0  0  0999 V2000
   -5.3622   -0.7152    0.0000 C   0  0  0  0  0  0  0  0  0  0  0  0
   -4.5376   -0.7152    0.0000 C   0  0  0  0  0  0  0  0  0  0  0  0
   -4.1250   -0.0008    0.0000 C   0  0  0  0  0  0  0  0  0  0  0  0
   -4.5376    0.7137    0.0000 C   0  0  0  0  0  0  0  0  0  0  0  0
   -5.3622    0.7137    0.0000 C   0  0  0  0  0  0  0  0  0  0  0  0
   -5.7746   -0.0008    0.0000 C   0  0  0  0  0  0  0  0  0  0  0  0
   -6.5991   -0.0008    0.0000 C   0  0  0  0  0  0  0  0  0  0  0  0
   -3.2998   -0.0008    0.0000 N   0  0  0  0  0  0  0  0  0  0  0  0
   -7.0117    0.7137    0.0000 O   0  0  0  0  0  0  0  0  0  0  0  0
   -7.0117   -0.7152    0.0000 O   0  0  0  0  0  0  0  0  0  0  0  0
   -2.8881   -0.7152    0.0000 C   0  0  0  0  0  0  0  0  0  0  0  0
   -2.0630   -0.7152    0.0000 C   0  0  0  0  0  0  0  0  0  0  0  0
   -1.6503   -0.0008    0.0000 C   0  0  0  0  0  0  0  0  0  0  0  0
   -2.0630    0.7137    0.0000 C   0  0  0  0  0  0  0  0  0  0  0  0
   -2.8881    0.7137    0.0000 C   0  0  0  0  0  0  0  0  0  0  0  0
   -1.6503   -1.4280    0.0000 C   0  0  0  0  0  0  0  0  0  0  0  0
   -0.8252   -1.4280    0.0000 C   0  0  0  0  0  0  0  0  0  0  0  0
   -0.4126   -0.7152    0.0000 C   0  0  0  0  0  0  0  0  0  0  0  0
   -0.8252   -0.0008    0.0000 C   0  0  0  0  0  0  0  0  0  0  0  0
   -0.4126    0.7137    0.0000 C   0  0  0  0  0  0  0  0  0  0  0  0
   -0.8252    1.4288    0.0000 C   0  0  0  0  0  0  0  0  0  0  0  0
   -1.6503    1.4288    0.0000 C   0  0  0  0  0  0  0  0  0  0  0  0
    0.4126   -0.7152    0.0000 C   0  0  0  0  0  0  0  0  0  0  0  0
    0.8252   -0.0008    0.0000 C   0  0  0  0  0  0  0  0  0  0  0  0
    0.4126    0.7137    0.0000 C   0  0  0  0  0  0  0  0  0  0  0  0
    1.6495   -0.0008    0.0000 C   0  0  0  0  0  0  0  0  0  0  0  0
    2.0615   -0.7152    0.0000 C   0  0  0  0  0  0  0  0  0  0  0  0
    2.8866   -0.7152    0.0000 C   0  0  0  0  0  0  0  0  0  0  0  0
    3.2991   -0.0008    0.0000 N   0  0  0  0  0  0  0  0  0  0  0  0
    2.8866    0.7137    0.0000 C   0  0  0  0  0  0  0  0  0  0  0  0
    2.0615    0.7137    0.0000 C   0  0  0  0  0  0  0  0  0  0  0  0
    4.1235   -0.0008    0.0000 C   0  0  0  0  0  0  0  0  0  0  0  0
    4.5361   -0.7152    0.0000 C   0  0  0  0  0  0  0  0  0  0  0  0
    4.5361    0.7137    0.0000 C   0  0  0  0  0  0  0  0  0  0  0  0
    0.8252    1.4288    0.0000 C   0  0  0  0  0  0  0  0  0  0  0  0
    0.8252   -1.4280    0.0000 C   0  0  0  0  0  0  0  0  0  0  0  0
   -3.2998   -1.4280    0.0000 O   0  0  0  0  0  0  0  0  0  0  0  0
   -3.2998    1.4288    0.0000 O   0  0  0  0  0  0  0  0  0  0  0  0
    1.6495   -1.4280    0.0000 C   0  0  0  0  0  0  0  0  0  0  0  0
    1.6495    1.4288    0.0000 C   0  0  0  0  0  0  0  0  0  0  0  0
    3.2991    1.4288    0.0000 O   0  0  0  0  0  0  0  0  0  0  0  0
    3.2991   -1.4280    0.0000 O   0  0  0  0  0  0  0  0  0  0  0  0
    5.3614   -0.7152    0.0000 C   0  0  0  0  0  0  0  0  0  0  0  0
    5.7738   -0.0008    0.0000 C   0  0  0  0  0  0  0  0  0  0  0  0
    5.3614    0.7137    0.0000 C   0  0  0  0  0  0  0  0  0  0  0  0
    6.5991   -0.0008    0.0000 C   0  0  0  0  0  0  0  0  0  0  0  0
    7.0117    0.7137    0.0000 O   0  0  0  0  0  0  0  0  0  0  0  0
    7.0117   -0.7152    0.0000 O   0  0  0  0  0  0  0  0  0  0  0  0
   -0.4126    2.1432    0.0000 Cl  0  0  0  0  0  0  0  0  0  0  0  0
    0.4118    2.1432    0.0000 Cl  0  0  0  0  0  0  0  0  0  0  0  0
    0.4126   -2.1432    0.0000 Cl  0  0  0  0  0  0  0  0  0  0  0  0
   -0.4126   -2.1432    0.0000 Cl  0  0  0  0  0  0  0  0  0  0  0  0
   -4.1250    1.4280    0.0000 O   0  0  0  0  0  0  0  0  0  0  0  0
    4.1243    1.4280    0.0000 O   0  0  0  0  0  0  0  0  0  0  0  0
  1  2  2  0
  2  3  1  0
  3  4  2  0
  4  5  1  0
  5  6  2  0
  6  1  1  0
  6  7  1  0
  3  8  1  0
  7  9  2  0
  7 10  1  0
  8 11  1  0
 11 12  1  0
 12 13  2  0
 13 14  1  0
 14 15  1  0
 15  8  1  0
 12 16  1  0
 16 17  2  0
 17 18  1  0
 18 19  2  0
 19 13  1  0
 19 20  1  0
 20 21  2  0
 21 22  1  0
 22 14  2  0
 18 23  1  0
 23 24  2  0
 24 25  1  0
 25 20  1  0
 24 26  1  0
 26 27  2  0
 27 28  1  0
 29 30  1  0
 31 26  1  0
 29 32  1  0
 32 33  2  0
 32 34  1  0
 25 35  2  0
 23 36  1  0
 11 37  2  0
 15 38  2  0
 36 39  2  0
 39 27  1  0
 31 40  2  0
 40 35  1  0
 31 30  1  0
 29 28  1  0
 30 41  2  0
 28 42  2  0
 33 43  1  0
 43 44  2  0
 44 45  1  0
 45 34  2  0
 44 46  1  0
 46 47  1  0
 46 48  2  0
 21 49  1  0
 35 50  1  0
 36 51  1  0
 17 52  1  0
  4 53  1  0
 34 54  1  0
M  END
>  <Name>  (78) 
L-83

$$$$
monoMOF-ligands.sdf
     RDKit          2D

 48 56  0  0  0  0  0  0  0  0999 V2000
   -5.3622   -0.7156    0.0000 C   0  0  0  0  0  0  0  0  0  0  0  0
   -4.5376   -0.7156    0.0000 C   0  0  0  0  0  0  0  0  0  0  0  0
   -4.1250   -0.0011    0.0000 C   0  0  0  0  0  0  0  0  0  0  0  0
   -4.5376    0.7133    0.0000 C   0  0  0  0  0  0  0  0  0  0  0  0
   -5.3622    0.7133    0.0000 C   0  0  0  0  0  0  0  0  0  0  0  0
   -5.7746   -0.0011    0.0000 C   0  0  0  0  0  0  0  0  0  0  0  0
   -6.5991   -0.0011    0.0000 C   0  0  0  0  0  0  0  0  0  0  0  0
   -3.2998   -0.0011    0.0000 N   0  0  0  0  0  0  0  0  0  0  0  0
   -7.0117    0.7133    0.0000 O   0  0  0  0  0  0  0  0  0  0  0  0
   -7.0117   -0.7156    0.0000 O   0  0  0  0  0  0  0  0  0  0  0  0
   -2.8881   -0.7156    0.0000 C   0  0  0  0  0  0  0  0  0  0  0  0
   -2.0630   -0.7156    0.0000 C   0  0  0  0  0  0  0  0  0  0  0  0
   -1.6503   -0.0011    0.0000 C   0  0  0  0  0  0  0  0  0  0  0  0
   -2.0630    0.7133    0.0000 C   0  0  0  0  0  0  0  0  0  0  0  0
   -2.8881    0.7133    0.0000 C   0  0  0  0  0  0  0  0  0  0  0  0
   -1.6503   -1.4284    0.0000 C   0  0  0  0  0  0  0  0  0  0  0  0
   -0.8252   -1.4284    0.0000 C   0  0  0  0  0  0  0  0  0  0  0  0
   -0.4126   -0.7156    0.0000 C   0  0  0  0  0  0  0  0  0  0  0  0
   -0.8252   -0.0011    0.0000 C   0  0  0  0  0  0  0  0  0  0  0  0
   -0.4126    0.7133    0.0000 C   0  0  0  0  0  0  0  0  0  0  0  0
   -0.8252    1.4284    0.0000 C   0  0  0  0  0  0  0  0  0  0  0  0
   -1.6503    1.4284    0.0000 C   0  0  0  0  0  0  0  0  0  0  0  0
    0.4126   -0.7156    0.0000 C   0  0  0  0  0  0  0  0  0  0  0  0
    0.8252   -0.0011    0.0000 C   0  0  0  0  0  0  0  0  0  0  0  0
    0.4126    0.7133    0.0000 C   0  0  0  0  0  0  0  0  0  0  0  0
    1.6495   -0.0011    0.0000 C   0  0  0  0  0  0  0  0  0  0  0  0
    2.0615   -0.7156    0.0000 C   0  0  0  0  0  0  0  0  0  0  0  0
    2.8866   -0.7156    0.0000 C   0  0  0  0  0  0  0  0  0  0  0  0
    3.2991   -0.0011    0.0000 N   0  0  0  0  0  0  0  0  0  0  0  0
    2.8866    0.7133    0.0000 C   0  0  0  0  0  0  0  0  0  0  0  0
    2.0615    0.7133    0.0000 C   0  0  0  0  0  0  0  0  0  0  0  0
    4.1235   -0.0011    0.0000 C   0  0  0  0  0  0  0  0  0  0  0  0
    4.5361   -0.7156    0.0000 C   0  0  0  0  0  0  0  0  0  0  0  0
    4.5361    0.7133    0.0000 C   0  0  0  0  0  0  0  0  0  0  0  0
    0.8252    1.4284    0.0000 C   0  0  0  0  0  0  0  0  0  0  0  0
    0.8252   -1.4284    0.0000 C   0  0  0  0  0  0  0  0  0  0  0  0
   -3.2998   -1.4284    0.0000 O   0  0  0  0  0  0  0  0  0  0  0  0
   -3.2998    1.4284    0.0000 O   0  0  0  0  0  0  0  0  0  0  0  0
    1.6495   -1.4284    0.0000 C   0  0  0  0  0  0  0  0  0  0  0  0
    1.6495    1.4284    0.0000 C   0  0  0  0  0  0  0  0  0  0  0  0
    3.2991    1.4284    0.0000 O   0  0  0  0  0  0  0  0  0  0  0  0
    3.2991   -1.4284    0.0000 O   0  0  0  0  0  0  0  0  0  0  0  0
    5.3614   -0.7156    0.0000 C   0  0  0  0  0  0  0  0  0  0  0  0
    5.7738   -0.0011    0.0000 C   0  0  0  0  0  0  0  0  0  0  0  0
    5.3614    0.7133    0.0000 C   0  0  0  0  0  0  0  0  0  0  0  0
    6.5991   -0.0011    0.0000 C   0  0  0  0  0  0  0  0  0  0  0  0
    7.0117    0.7133    0.0000 O   0  0  0  0  0  0  0  0  0  0  0  0
    7.0117   -0.7156    0.0000 O   0  0  0  0  0  0  0  0  0  0  0  0
  1  2  2  0
  2  3  1  0
  3  4  2  0
  4  5  1  0
  5  6  2  0
  6  1  1  0
  6  7  1  0
  3  8  1  0
  7  9  2  0
  7 10  1  0
  8 11  1  0
 11 12  1  0
 12 13  2  0
 13 14  1  0
 14 15  1  0
 15  8  1  0
 12 16  1  0
 16 17  2  0
 17 18  1  0
 18 19  2  0
 19 13  1  0
 19 20  1  0
 20 21  2  0
 21 22  1  0
 22 14  2  0
 18 23  1  0
 23 24  2  0
 24 25  1  0
 25 20  1  0
 24 26  1  0
 26 27  2  0
 27 28  1  0
 29 30  1  0
 31 26  1  0
 29 32  1  0
 32 33  2  0
 32 34  1  0
 25 35  2  0
 23 36  1  0
 11 37  2  0
 15 38  2  0
 36 39  2  0
 39 27  1  0
 31 40  2  0
 40 35  1  0
 31 30  1  0
 29 28  1  0
 30 41  2  0
 28 42  2  0
 33 43  1  0
 43 44  2  0
 44 45  1  0
 45 34  2  0
 44 46  1  0
 46 47  1  0
 46 48  2  0
M  END
>  <Name>  (79) 
L-84

$$$$
